/*---------------------------------------------------------------------------*\
| =========                 |                                                 |
| \\      /  F ield         | OpenFOAM: The Open Source CFD Toolbox           |
|  \\    /   O peration     | Version:  2412                                  |
|   \\  /    A nd           | Website:  www.openfoam.com                      |
|    \\/     M anipulation  |                                                 |
\*---------------------------------------------------------------------------*/
Build  : _8dbc61e11c-20241220 OPENFOAM=2412 version=v2412
Arch   : "LSB;label=32;scalar=64"
Exec   : simpleFoam
Date   : Mar 30 2025
Time   : 00:35:46
Host   : RaiotdeMacBook-Air.local
PID    : 95247
--> FOAM Warning : 
    From Foam::fileName Foam::cwd_L()
    in file POSIX.C at line 541
    PWD contains /. or /.. - reverting to physical description
I/O    : uncollated
--> FOAM Warning : 
    From Foam::fileName Foam::cwd_L()
    in file POSIX.C at line 541
    PWD contains /. or /.. - reverting to physical description
Case   : /Users/raiot/Documents/Programing/VSCode/airfoilDemo/sims
nProcs : 1
trapFpe: Floating point exception trapping enabled (FOAM_SIGFPE).
fileModificationChecking : Monitoring run-time modified files using timeStampMaster (fileModificationSkew 5, maxFileModificationPolls 20)
allowSystemOperations : Allowing user-supplied system call operations

// * * * * * * * * * * * * * * * * * * * * * * * * * * * * * * * * * * * * * //
Create time

Create mesh for time = 0


SIMPLE: convergence criteria
    field p	 tolerance 1e-06
    field U	 tolerance 1e-06
    field nuTilda	 tolerance 1e-06

Reading field p

Reading field U

Reading/calculating face flux field phi

Selecting incompressible transport model Newtonian
Selecting turbulence model type RAS
Selecting RAS turbulence model SpalartAllmaras
Selecting patchDistMethod meshWave
ft2 term: inactive
RAS
{
    RASModel        SpalartAllmaras;
    turbulence      on;
    printCoeffs     on;
    sigmaNut        0.66666;
    kappa           0.41;
    Cb1             0.1355;
    Cb2             0.622;
    Cw2             0.3;
    Cw3             2;
    Cv1             7.1;
    Cs              0.3;
    ck              0.07;
    ft2             false;
    Ct3             1.2;
    Ct4             0.5;
}

No MRF models present

No finite volume options present

Starting time loop

forceCoeffs forceCoeffs:
    rho: rhoInf
    Freestream density (rhoInf) set to 1.225
    Not including porosity effects
    magUInf: 1
    lRef   : 1
    Aref   : 1
    rhoInf : 1.225
    Selecting all coefficients
    - Drag force: Cd
    - Drag force front: Cd(f)
    - Drag force rear: Cd(r)
    - Lift force: Cl
    - Lift force front: Cl(f)
    - Lift force rear: Cl(r)
    - Pitch moment: CmPitch
    - Roll moment: CmRoll
    - Yaw moment: CmYaw
    - Side force: Cs
    - Side force front: Cs(f)
    - Side force rear: Cs(r)


forces forces:
    p: p
    U: U
    rho: rhoInf
    Freestream density (rhoInf) set to 1.225
    Not including porosity effects

Time = 1

smoothSolver:  Solving for Ux, Initial residual = 1, Final residual = 0.0380961, No Iterations 2
smoothSolver:  Solving for Uy, Initial residual = 1, Final residual = 0.0327461, No Iterations 2
GAMG:  Solving for p, Initial residual = 1, Final residual = 0.00841734, No Iterations 51
GAMG:  Solving for p, Initial residual = 0.00306939, Final residual = 2.58025e-05, No Iterations 20
time step continuity errors : sum local = 0.000177755, global = 6.70862e-05, cumulative = 6.70862e-05
smoothSolver:  Solving for nuTilda, Initial residual = 1, Final residual = 0.0479002, No Iterations 2
ExecutionTime = 0.23 s  ClockTime = 0 s

forceCoeffs forceCoeffs write:
    Coefficient	Total	Pressure	Viscous	Internal
    Cd:	4366.82	3853.3	513.512	0
    Cd(f):	2183.62	1926.87	256.756	0
    Cd(r):	2183.2	1926.44	256.756	0
    Cl:	-0.425486	-0.425951	0.000464815	0
    Cl(f):	-0.100153	-0.0992598	-0.000893436	0
    Cl(r):	-0.325333	-0.326691	0.00135825	0
    CmPitch:	0.11259	0.113716	-0.00112584	0
    CmRoll:	0.212743	0.212975	-0.000232408	0
    CmYaw:	2183.41	1926.65	256.756	0
    Cs:	-7.44644e-18	-5.93749e-20	-7.38707e-18	0
    Cs(f):	2183.41	1926.65	256.756	0
    Cs(r):	-2183.41	-1926.65	-256.756	0

    writing force and moment coefficient files.

forces forces write:
    Sum of forces
        Total    : (2674.67 -0.26061 4.56094e-18)
        Pressure : (2360.15 -0.260895 3.63671e-20)
        Viscous  : (314.526 0.000284699 4.52458e-18)
    Sum of moments
        Total    : (0.130305 1337.34 -0.0689612)
        Pressure : (0.130447 1180.07 -0.0696508)
        Viscous  : (-0.00014235 157.263 0.000689579)
    writing force and moment files.

Time = 2

smoothSolver:  Solving for Ux, Initial residual = 0.0944264, Final residual = 0.0070252, No Iterations 5
smoothSolver:  Solving for Uy, Initial residual = 0.382651, Final residual = 0.0292114, No Iterations 5
GAMG:  Solving for p, Initial residual = 0.103014, Final residual = 0.000904014, No Iterations 26
GAMG:  Solving for p, Initial residual = 0.0160134, Final residual = 0.00014821, No Iterations 38
time step continuity errors : sum local = 0.00024869, global = -7.78591e-05, cumulative = -1.07729e-05
smoothSolver:  Solving for nuTilda, Initial residual = 0.0193406, Final residual = 0.00150926, No Iterations 8
ExecutionTime = 0.38 s  ClockTime = 0 s

forceCoeffs forceCoeffs write:
    Coefficient	Total	Pressure	Viscous	Internal
    Cd:	645.682	417.571	228.111	0
    Cd(f):	312.672	198.624	114.048	0
    Cd(r):	333.01	218.948	114.063	0
    Cl:	20.3381	20.324	0.0141754	0
    Cl(f):	172.333	172.319	0.0139684	0
    Cl(r):	-151.995	-151.995	0.000207028	0
    CmPitch:	162.164	162.157	0.00688068	0
    CmRoll:	-10.1691	-10.162	-0.00708771	0
    CmYaw:	322.841	208.786	114.056	0
    Cs:	2.17987e-18	-9.91153e-19	3.17102e-18	0
    Cs(f):	322.841	208.786	114.056	0
    Cs(r):	-322.841	-208.786	-114.056	0

    writing force and moment coefficient files.

forces forces write:
    Sum of forces
        Total    : (395.48 12.4571 -1.33517e-18)
        Pressure : (255.762 12.4484 6.07081e-19)
        Viscous  : (139.718 0.00868244 -1.94225e-18)
    Sum of moments
        Total    : (-6.22856 197.74 -99.3253)
        Pressure : (-6.22421 127.881 -99.3211)
        Viscous  : (-0.00434122 69.859 -0.00421442)
    writing force and moment files.

Time = 3

smoothSolver:  Solving for Ux, Initial residual = 0.00935896, Final residual = 0.000723485, No Iterations 5
smoothSolver:  Solving for Uy, Initial residual = 0.0844891, Final residual = 0.00662188, No Iterations 5
GAMG:  Solving for p, Initial residual = 0.200141, Final residual = 0.00184634, No Iterations 21
GAMG:  Solving for p, Initial residual = 0.0133004, Final residual = 0.000108725, No Iterations 40
time step continuity errors : sum local = 5.0415e-05, global = -1.48471e-05, cumulative = -2.562e-05
smoothSolver:  Solving for nuTilda, Initial residual = 0.00524451, Final residual = 0.00045187, No Iterations 10
ExecutionTime = 0.52 s  ClockTime = 1 s

forceCoeffs forceCoeffs write:
    Coefficient	Total	Pressure	Viscous	Internal
    Cd:	178.106	20.623	157.483	0
    Cd(f):	107.646	28.9039	78.7426	0
    Cd(r):	70.4595	-8.28087	78.7404	0
    Cl:	-37.1869	-37.1848	-0.00214995	0
    Cl(f):	25.1619	25.171	-0.00917752	0
    Cl(r):	-62.3488	-62.3558	0.00702758	0
    CmPitch:	43.7553	43.7634	-0.00810255	0
    CmRoll:	18.5935	18.5924	0.00107497	0
    CmYaw:	89.053	10.3115	78.7415	0
    Cs:	-2.21411e-19	-1.06721e-19	-1.1469e-19	0
    Cs(f):	89.053	10.3115	78.7415	0
    Cs(r):	-89.053	-10.3115	-78.7415	0

    writing force and moment coefficient files.

forces forces write:
    Sum of forces
        Total    : (109.09 -22.777 1.35614e-19)
        Pressure : (12.6316 -22.7757 6.53667e-20)
        Viscous  : (96.4583 -0.00131684 7.02475e-20)
    Sum of moments
        Total    : (11.3885 54.545 -26.8001)
        Pressure : (11.3878 6.3158 -26.8051)
        Viscous  : (0.000658421 48.2292 0.00496281)
    writing force and moment files.

Time = 4

smoothSolver:  Solving for Ux, Initial residual = 0.00340397, Final residual = 0.000292498, No Iterations 4
smoothSolver:  Solving for Uy, Initial residual = 0.0273881, Final residual = 0.00206913, No Iterations 5
GAMG:  Solving for p, Initial residual = 0.176019, Final residual = 0.00165847, No Iterations 23
GAMG:  Solving for p, Initial residual = 0.00533992, Final residual = 5.32518e-05, No Iterations 33
time step continuity errors : sum local = 1.54547e-05, global = -6.101e-06, cumulative = -3.1721e-05
smoothSolver:  Solving for nuTilda, Initial residual = 0.00358847, Final residual = 0.000346869, No Iterations 10
ExecutionTime = 0.64 s  ClockTime = 1 s

forceCoeffs forceCoeffs write:
    Coefficient	Total	Pressure	Viscous	Internal
    Cd:	118.824	-2.53209	121.356	0
    Cd(f):	59.3659	-1.31071	60.6766	0
    Cd(r):	59.4584	-1.22138	60.6798	0
    Cl:	0.0925502	0.0893284	0.00322183	0
    Cl(f):	-2.60095	-2.59982	-0.00113614	0
    Cl(r):	2.6935	2.68914	0.00435797	0
    CmPitch:	-2.64723	-2.64448	-0.00274706	0
    CmRoll:	-0.0462751	-0.0446642	-0.00161091	0
    CmYaw:	59.4121	-1.26605	60.6782	0
    Cs:	1.93782e-19	2.09405e-19	-1.5623e-20	0
    Cs(f):	59.4121	-1.26605	60.6782	0
    Cs(r):	-59.4121	1.26605	-60.6782	0

    writing force and moment coefficient files.

forces forces write:
    Sum of forces
        Total    : (72.7799 0.056687 -1.18691e-19)
        Pressure : (-1.55091 0.0547136 -1.2826e-19)
        Viscous  : (74.3308 0.00197337 9.56912e-21)
    Sum of moments
        Total    : (-0.0283435 36.3899 1.62143)
        Pressure : (-0.0273568 -0.775453 1.61974)
        Viscous  : (-0.000986684 37.1654 0.00168257)
    writing force and moment files.

Time = 5

smoothSolver:  Solving for Ux, Initial residual = 0.00222566, Final residual = 0.000208832, No Iterations 4
smoothSolver:  Solving for Uy, Initial residual = 0.0208284, Final residual = 0.00150265, No Iterations 5
GAMG:  Solving for p, Initial residual = 0.0601036, Final residual = 0.000592048, No Iterations 21
GAMG:  Solving for p, Initial residual = 0.00195072, Final residual = 1.83804e-05, No Iterations 39
time step continuity errors : sum local = 5.17262e-06, global = 2.41056e-06, cumulative = -2.93104e-05
smoothSolver:  Solving for nuTilda, Initial residual = 0.00335707, Final residual = 0.000301155, No Iterations 11
ExecutionTime = 0.78 s  ClockTime = 1 s

forceCoeffs forceCoeffs write:
    Coefficient	Total	Pressure	Viscous	Internal
    Cd:	100.719	1.08155	99.6375	0
    Cd(f):	43.1105	-6.70689	49.8174	0
    Cd(r):	57.6085	7.78844	49.8201	0
    Cl:	14.498	14.4953	0.00264599	0
    Cl(f):	-1.77439	-1.77334	-0.00104709	0
    Cl(r):	16.2724	16.2687	0.00369308	0
    CmPitch:	-9.02338	-9.02101	-0.00237009	0
    CmRoll:	-7.24899	-7.24767	-0.001323	0
    CmYaw:	50.3595	0.540775	49.8187	0
    Cs:	4.05684e-19	1.52441e-19	2.53243e-19	0
    Cs(f):	50.3595	0.540775	49.8187	0
    Cs(r):	-50.3595	-0.540775	-49.8187	0

    writing force and moment coefficient files.

forces forces write:
    Sum of forces
        Total    : (61.6904 8.88001 -2.48481e-19)
        Pressure : (0.662449 8.87839 -9.33699e-20)
        Viscous  : (61.0279 0.00162067 -1.55112e-19)
    Sum of moments
        Total    : (-4.44001 30.8452 5.52682)
        Pressure : (-4.4392 0.331224 5.52537)
        Viscous  : (-0.000810336 30.514 0.00145168)
    writing force and moment files.

Time = 6

smoothSolver:  Solving for Ux, Initial residual = 0.00184753, Final residual = 0.00018337, No Iterations 4
smoothSolver:  Solving for Uy, Initial residual = 0.0194971, Final residual = 0.00145755, No Iterations 5
GAMG:  Solving for p, Initial residual = 0.0325573, Final residual = 0.000320141, No Iterations 17
GAMG:  Solving for p, Initial residual = 0.000931916, Final residual = 9.04626e-06, No Iterations 39
time step continuity errors : sum local = 2.50457e-06, global = 1.02623e-06, cumulative = -2.82842e-05
smoothSolver:  Solving for nuTilda, Initial residual = 0.00375866, Final residual = 0.00035608, No Iterations 11
ExecutionTime = 0.9 s  ClockTime = 1 s

forceCoeffs forceCoeffs write:
    Coefficient	Total	Pressure	Viscous	Internal
    Cd:	89.0603	3.65489	85.4054	0
    Cd(f):	35.968	-6.73326	42.7013	0
    Cd(r):	53.0923	10.3882	42.7041	0
    Cl:	17.1242	17.1214	0.00282443	0
    Cl(f):	-0.304884	-0.303617	-0.00126632	0
    Cl(r):	17.4291	17.425	0.00409075	0
    CmPitch:	-8.86701	-8.86433	-0.00267853	0
    CmRoll:	-8.56212	-8.56071	-0.00141222	0
    CmYaw:	44.5301	1.82745	42.7027	0
    Cs:	4.3054e-19	6.55024e-20	3.65037e-19	0
    Cs(f):	44.5301	1.82745	42.7027	0
    Cs(r):	-44.5301	-1.82745	-42.7027	0

    writing force and moment coefficient files.

forces forces write:
    Sum of forces
        Total    : (54.5494 10.4886 -2.63706e-19)
        Pressure : (2.23862 10.4869 -4.01202e-20)
        Viscous  : (52.3108 0.00172996 -2.23585e-19)
    Sum of moments
        Total    : (-5.2443 27.2747 5.43104)
        Pressure : (-5.24343 1.11931 5.4294)
        Viscous  : (-0.000864982 26.1554 0.0016406)
    writing force and moment files.

Time = 7

smoothSolver:  Solving for Ux, Initial residual = 0.00161086, Final residual = 0.000107135, No Iterations 5
smoothSolver:  Solving for Uy, Initial residual = 0.0184008, Final residual = 0.00141615, No Iterations 5
GAMG:  Solving for p, Initial residual = 0.0213954, Final residual = 0.000199893, No Iterations 16
GAMG:  Solving for p, Initial residual = 0.000594625, Final residual = 5.6786e-06, No Iterations 40
time step continuity errors : sum local = 1.56629e-06, global = 6.2148e-07, cumulative = -2.76627e-05
smoothSolver:  Solving for nuTilda, Initial residual = 0.00480708, Final residual = 0.000471717, No Iterations 11
ExecutionTime = 1.04 s  ClockTime = 1 s

forceCoeffs forceCoeffs write:
    Coefficient	Total	Pressure	Viscous	Internal
    Cd:	79.981	4.8563	75.1247	0
    Cd(f):	31.5854	-5.97556	37.5609	0
    Cd(r):	48.3957	10.8319	37.5638	0
    Cl:	16.8103	16.8074	0.00291658	0
    Cl(f):	0.329409	0.330901	-0.00149242	0
    Cl(r):	16.4809	16.4765	0.004409	0
    CmPitch:	-8.07576	-8.07281	-0.00295071	0
    CmRoll:	-8.40517	-8.40371	-0.00145829	0
    CmYaw:	39.9905	2.42815	37.5624	0
    Cs:	4.14898e-19	2.92358e-20	3.85662e-19	0
    Cs(f):	39.9905	2.42815	37.5624	0
    Cs(r):	-39.9905	-2.42815	-37.5624	0

    writing force and moment coefficient files.

forces forces write:
    Sum of forces
        Total    : (48.9884 10.2963 -2.54125e-19)
        Pressure : (2.97449 10.2945 -1.79069e-20)
        Viscous  : (46.0139 0.00178641 -2.36218e-19)
    Sum of moments
        Total    : (-5.14816 24.4942 4.9464)
        Pressure : (-5.14727 1.48724 4.94459)
        Viscous  : (-0.000893203 23.007 0.00180731)
    writing force and moment files.

Time = 8

smoothSolver:  Solving for Ux, Initial residual = 0.00141239, Final residual = 9.40865e-05, No Iterations 5
smoothSolver:  Solving for Uy, Initial residual = 0.0178547, Final residual = 0.00138856, No Iterations 5
GAMG:  Solving for p, Initial residual = 0.0147157, Final residual = 0.000146831, No Iterations 14
GAMG:  Solving for p, Initial residual = 0.000390658, Final residual = 3.84098e-06, No Iterations 38
time step continuity errors : sum local = 1.06586e-06, global = 3.69697e-07, cumulative = -2.7293e-05
smoothSolver:  Solving for nuTilda, Initial residual = 0.00734017, Final residual = 0.000633085, No Iterations 12
ExecutionTime = 1.16 s  ClockTime = 1 s

forceCoeffs forceCoeffs write:
    Coefficient	Total	Pressure	Viscous	Internal
    Cd:	72.6892	5.281	67.4082	0
    Cd(f):	28.1171	-5.58555	33.7026	0
    Cd(r):	44.5721	10.8665	33.7056	0
    Cl:	16.4551	16.4521	0.00296434	0
    Cl(f):	0.367684	0.369285	-0.00160043	0
    Cl(r):	16.0874	16.0828	0.00456477	0
    CmPitch:	-7.85985	-7.85676	-0.0030826	0
    CmRoll:	-8.22753	-8.22605	-0.00148217	0
    CmYaw:	36.3446	2.6405	33.7041	0
    Cs:	4.11258e-19	2.53221e-20	3.85936e-19	0
    Cs(f):	36.3446	2.6405	33.7041	0
    Cs(r):	-36.3446	-2.6405	-33.7041	0

    writing force and moment coefficient files.

forces forces write:
    Sum of forces
        Total    : (44.5221 10.0787 -2.51896e-19)
        Pressure : (3.23461 10.0769 -1.55098e-20)
        Viscous  : (41.2875 0.00181566 -2.36386e-19)
    Sum of moments
        Total    : (-5.03936 22.2611 4.81416)
        Pressure : (-5.03845 1.61731 4.81227)
        Viscous  : (-0.000907829 20.6438 0.00188809)
    writing force and moment files.

Time = 9

smoothSolver:  Solving for Ux, Initial residual = 0.00126076, Final residual = 8.4505e-05, No Iterations 5
smoothSolver:  Solving for Uy, Initial residual = 0.0172424, Final residual = 0.00134895, No Iterations 5
GAMG:  Solving for p, Initial residual = 0.0105371, Final residual = 9.52058e-05, No Iterations 15
GAMG:  Solving for p, Initial residual = 0.000277099, Final residual = 2.39167e-06, No Iterations 40
time step continuity errors : sum local = 6.71819e-07, global = 2.2984e-07, cumulative = -2.70632e-05
smoothSolver:  Solving for nuTilda, Initial residual = 0.0180748, Final residual = 0.0015738, No Iterations 12
ExecutionTime = 1.29 s  ClockTime = 1 s

forceCoeffs forceCoeffs write:
    Coefficient	Total	Pressure	Viscous	Internal
    Cd:	66.9047	5.55936	61.3453	0
    Cd(f):	25.4191	-5.25205	30.6711	0
    Cd(r):	41.4856	10.8114	30.6742	0
    Cl:	16.0665	16.0635	0.00305756	0
    Cl(f):	0.303631	0.305356	-0.00172527	0
    Cl(r):	15.7629	15.7581	0.00478282	0
    CmPitch:	-7.72963	-7.72637	-0.00325405	0
    CmRoll:	-8.03326	-8.03173	-0.00152878	0
    CmYaw:	33.4523	2.77968	30.6727	0
    Cs:	4.16683e-19	3.04513e-20	3.86232e-19	0
    Cs(f):	33.4523	2.77968	30.6727	0
    Cs(r):	-33.4523	-2.77968	-30.6727	0

    writing force and moment coefficient files.

forces forces write:
    Sum of forces
        Total    : (40.9791 9.84074 -2.55218e-19)
        Pressure : (3.40511 9.83887 -1.86514e-20)
        Viscous  : (37.574 0.00187275 -2.36567e-19)
    Sum of moments
        Total    : (-4.92037 20.4896 4.7344)
        Pressure : (-4.91944 1.70255 4.7324)
        Viscous  : (-0.000936376 18.787 0.0019931)
    writing force and moment files.

Time = 10

smoothSolver:  Solving for Ux, Initial residual = 0.00113927, Final residual = 7.68471e-05, No Iterations 5
smoothSolver:  Solving for Uy, Initial residual = 0.016615, Final residual = 0.0013083, No Iterations 5
GAMG:  Solving for p, Initial residual = 0.00787569, Final residual = 6.44643e-05, No Iterations 17
GAMG:  Solving for p, Initial residual = 0.000213454, Final residual = 1.82632e-06, No Iterations 42
time step continuity errors : sum local = 5.1944e-07, global = 1.91361e-07, cumulative = -2.68718e-05
smoothSolver:  Solving for nuTilda, Initial residual = 0.0137765, Final residual = 0.00119098, No Iterations 12
ExecutionTime = 1.42 s  ClockTime = 1 s

forceCoeffs forceCoeffs write:
    Coefficient	Total	Pressure	Viscous	Internal
    Cd:	62.225	5.80056	56.4244	0
    Cd(f):	23.2629	-4.94771	28.2106	0
    Cd(r):	38.962	10.7483	28.2138	0
    Cl:	15.6991	15.696	0.00312936	0
    Cl(f):	0.246959	0.248808	-0.00184907	0
    Cl(r):	15.4522	15.4472	0.00497843	0
    CmPitch:	-7.6026	-7.59919	-0.00341375	0
    CmRoll:	-7.84956	-7.848	-0.00156468	0
    CmYaw:	31.1125	2.90028	28.2122	0
    Cs:	4.22484e-19	3.3203e-20	3.89281e-19	0
    Cs(f):	31.1125	2.90028	28.2122	0
    Cs(r):	-31.1125	-2.90028	-28.2122	0

    writing force and moment coefficient files.

forces forces write:
    Sum of forces
        Total    : (38.1128 9.61571 -2.58771e-19)
        Pressure : (3.55284 9.6138 -2.03369e-20)
        Viscous  : (34.56 0.00191673 -2.38435e-19)
    Sum of moments
        Total    : (-4.80786 19.0564 4.65659)
        Pressure : (-4.8069 1.77642 4.6545)
        Viscous  : (-0.000958365 17.28 0.00209092)
    writing force and moment files.

Time = 11

smoothSolver:  Solving for Ux, Initial residual = 0.00103937, Final residual = 7.03985e-05, No Iterations 5
smoothSolver:  Solving for Uy, Initial residual = 0.0160133, Final residual = 0.00126886, No Iterations 5
GAMG:  Solving for p, Initial residual = 0.00610546, Final residual = 5.05841e-05, No Iterations 17
GAMG:  Solving for p, Initial residual = 0.000174351, Final residual = 1.59782e-06, No Iterations 40
time step continuity errors : sum local = 4.59375e-07, global = 1.69192e-07, cumulative = -2.67026e-05
smoothSolver:  Solving for nuTilda, Initial residual = 0.00630197, Final residual = 0.000542236, No Iterations 12
ExecutionTime = 1.55 s  ClockTime = 2 s

forceCoeffs forceCoeffs write:
    Coefficient	Total	Pressure	Viscous	Internal
    Cd:	58.3302	5.99976	52.3304	0
    Cd(f):	21.4895	-4.67409	26.1636	0
    Cd(r):	36.8407	10.6739	26.1668	0
    Cl:	15.3511	15.3479	0.00317267	0
    Cl(f):	0.211355	0.213314	-0.00195878	0
    Cl(r):	15.1398	15.1346	0.00513146	0
    CmPitch:	-7.4642	-7.46066	-0.00354512	0
    CmRoll:	-7.67556	-7.67397	-0.00158634	0
    CmYaw:	29.1651	2.99988	26.1652	0
    Cs:	4.25295e-19	3.22319e-20	3.93063e-19	0
    Cs(f):	29.1651	2.99988	26.1652	0
    Cs(r):	-29.1651	-2.99988	-26.1652	0

    writing force and moment coefficient files.

forces forces write:
    Sum of forces
        Total    : (35.7272 9.40256 -2.60493e-19)
        Pressure : (3.67486 9.40061 -1.97421e-20)
        Viscous  : (32.0524 0.00194326 -2.40751e-19)
    Sum of moments
        Total    : (-4.70128 17.8636 4.57182)
        Pressure : (-4.70031 1.83743 4.56965)
        Viscous  : (-0.000971631 16.0262 0.00217139)
    writing force and moment files.

Time = 12

smoothSolver:  Solving for Ux, Initial residual = 0.000954438, Final residual = 6.48499e-05, No Iterations 5
smoothSolver:  Solving for Uy, Initial residual = 0.0154774, Final residual = 0.00123238, No Iterations 5
GAMG:  Solving for p, Initial residual = 0.00488796, Final residual = 4.73491e-05, No Iterations 15
GAMG:  Solving for p, Initial residual = 0.000152181, Final residual = 1.36928e-06, No Iterations 38
time step continuity errors : sum local = 3.96884e-07, global = 1.34087e-07, cumulative = -2.65685e-05
smoothSolver:  Solving for nuTilda, Initial residual = 0.00407838, Final residual = 0.000346746, No Iterations 12
ExecutionTime = 1.68 s  ClockTime = 2 s

forceCoeffs forceCoeffs write:
    Coefficient	Total	Pressure	Viscous	Internal
    Cd:	55.0067	6.1483	48.8584	0
    Cd(f):	19.9973	-4.43032	24.4276	0
    Cd(r):	35.0094	10.5786	24.4308	0
    Cl:	15.0121	15.0089	0.00318218	0
    Cl(f):	0.196278	0.198351	-0.00207276	0
    Cl(r):	14.8158	14.8106	0.00525494	0
    CmPitch:	-7.30979	-7.30612	-0.00366385	0
    CmRoll:	-7.50606	-7.50447	-0.00159109	0
    CmYaw:	27.5034	3.07415	24.4292	0
    Cs:	4.25784e-19	2.96853e-20	3.96099e-19	0
    Cs(f):	27.5034	3.07415	24.4292	0
    Cs(r):	-27.5034	-3.07415	-24.4292	0

    writing force and moment coefficient files.

forces forces write:
    Sum of forces
        Total    : (33.6916 9.19493 -2.60793e-19)
        Pressure : (3.76583 9.19298 -1.81823e-20)
        Viscous  : (29.9258 0.00194908 -2.42611e-19)
    Sum of moments
        Total    : (-4.59746 16.8458 4.47724)
        Pressure : (-4.59649 1.88292 4.475)
        Viscous  : (-0.000974541 14.9629 0.00224411)
    writing force and moment files.

Time = 13

smoothSolver:  Solving for Ux, Initial residual = 0.000883474, Final residual = 6.0098e-05, No Iterations 5
smoothSolver:  Solving for Uy, Initial residual = 0.0149956, Final residual = 0.00119825, No Iterations 5
GAMG:  Solving for p, Initial residual = 0.00405369, Final residual = 3.79956e-05, No Iterations 15
GAMG:  Solving for p, Initial residual = 0.000136561, Final residual = 1.17732e-06, No Iterations 36
time step continuity errors : sum local = 3.43318e-07, global = 1.10287e-07, cumulative = -2.64582e-05
smoothSolver:  Solving for nuTilda, Initial residual = 0.00301431, Final residual = 0.000298706, No Iterations 11
ExecutionTime = 1.8 s  ClockTime = 2 s

forceCoeffs forceCoeffs write:
    Coefficient	Total	Pressure	Viscous	Internal
    Cd:	52.1156	6.24706	45.8685	0
    Cd(f):	18.719	-4.21374	22.9327	0
    Cd(r):	33.3966	10.4608	22.9358	0
    Cl:	14.6777	14.6745	0.00312819	0
    Cl(f):	0.201508	0.203682	-0.00217382	0
    Cl(r):	14.4762	14.4709	0.00530201	0
    CmPitch:	-7.13732	-7.13359	-0.00373791	0
    CmRoll:	-7.33883	-7.33727	-0.00156409	0
    CmYaw:	26.0578	3.12353	22.9343	0
    Cs:	4.25841e-19	2.81246e-20	3.97716e-19	0
    Cs(f):	26.0578	3.12353	22.9343	0
    Cs(r):	-26.0578	-3.12353	-22.9343	0

    writing force and moment coefficient files.

forces forces write:
    Sum of forces
        Total    : (31.9208 8.99007 -2.60827e-19)
        Pressure : (3.82632 8.98815 -1.72263e-20)
        Viscous  : (28.0945 0.00191601 -2.43601e-19)
    Sum of moments
        Total    : (-4.49503 15.9604 4.37161)
        Pressure : (-4.49408 1.91316 4.36932)
        Viscous  : (-0.000958007 14.0472 0.00228947)
    writing force and moment files.

Time = 14

smoothSolver:  Solving for Ux, Initial residual = 0.00082512, Final residual = 5.60738e-05, No Iterations 5
smoothSolver:  Solving for Uy, Initial residual = 0.014554, Final residual = 0.00116676, No Iterations 5
GAMG:  Solving for p, Initial residual = 0.00341879, Final residual = 3.2579e-05, No Iterations 15
GAMG:  Solving for p, Initial residual = 0.000130974, Final residual = 1.24736e-06, No Iterations 34
time step continuity errors : sum local = 3.64973e-07, global = 1.20512e-07, cumulative = -2.63377e-05
smoothSolver:  Solving for nuTilda, Initial residual = 0.00242874, Final residual = 0.000235661, No Iterations 11
ExecutionTime = 1.91 s  ClockTime = 2 s

forceCoeffs forceCoeffs write:
    Coefficient	Total	Pressure	Viscous	Internal
    Cd:	49.5569	6.29563	43.2613	0
    Cd(f):	17.5997	-4.02941	21.6291	0
    Cd(r):	31.9572	10.325	21.6322	0
    Cl:	14.3575	14.3545	0.003032	0
    Cl(f):	0.230436	0.232709	-0.00227294	0
    Cl(r):	14.127	14.1217	0.00530495	0
    CmPitch:	-6.94831	-6.94452	-0.00378895	0
    CmRoll:	-7.17874	-7.17723	-0.001516	0
    CmYaw:	24.7785	3.14781	21.6306	0
    Cs:	4.26751e-19	2.76352e-20	3.99116e-19	0
    Cs(f):	24.7785	3.14781	21.6306	0
    Cs(r):	-24.7785	-3.14781	-21.6306	0

    writing force and moment coefficient files.

forces forces write:
    Sum of forces
        Total    : (30.3536 8.79396 -2.61385e-19)
        Pressure : (3.85607 8.7921 -1.69266e-20)
        Viscous  : (26.4975 0.0018571 -2.44458e-19)
    Sum of moments
        Total    : (-4.39698 15.1768 4.25584)
        Pressure : (-4.39605 1.92804 4.25352)
        Viscous  : (-0.000928551 13.2488 0.00232073)
    writing force and moment files.

Time = 15

smoothSolver:  Solving for Ux, Initial residual = 0.000777043, Final residual = 5.26388e-05, No Iterations 5
smoothSolver:  Solving for Uy, Initial residual = 0.0141567, Final residual = 0.00113816, No Iterations 5
GAMG:  Solving for p, Initial residual = 0.00302848, Final residual = 2.8649e-05, No Iterations 16
GAMG:  Solving for p, Initial residual = 0.000129415, Final residual = 1.19404e-06, No Iterations 32
time step continuity errors : sum local = 3.49679e-07, global = 1.14273e-07, cumulative = -2.62234e-05
smoothSolver:  Solving for nuTilda, Initial residual = 0.00205325, Final residual = 0.000195728, No Iterations 11
ExecutionTime = 2.02 s  ClockTime = 2 s

forceCoeffs forceCoeffs write:
    Coefficient	Total	Pressure	Viscous	Internal
    Cd:	47.2591	6.2952	40.9639	0
    Cd(f):	16.6134	-3.86711	20.4805	0
    Cd(r):	30.6457	10.1623	20.4834	0
    Cl:	14.0323	14.0294	0.00287885	0
    Cl(f):	0.27957	0.281934	-0.00236352	0
    Cl(r):	13.7527	13.7475	0.00524237	0
    CmPitch:	-6.73658	-6.73278	-0.00380294	0
    CmRoll:	-7.01615	-7.01471	-0.00143943	0
    CmYaw:	23.6295	3.1476	20.4819	0
    Cs:	4.28734e-19	2.80823e-20	4.00651e-19	0
    Cs(f):	23.6295	3.1476	20.4819	0
    Cs(r):	-23.6295	-3.1476	-20.4819	0

    writing force and moment coefficient files.

forces forces write:
    Sum of forces
        Total    : (28.9462 8.59478 -2.62599e-19)
        Pressure : (3.85581 8.59302 -1.72004e-20)
        Viscous  : (25.0904 0.0017633 -2.45399e-19)
    Sum of moments
        Total    : (-4.29739 14.4731 4.12615)
        Pressure : (-4.29651 1.9279 4.12383)
        Viscous  : (-0.000881649 12.5452 0.0023293)
    writing force and moment files.

Time = 16

smoothSolver:  Solving for Ux, Initial residual = 0.000737413, Final residual = 4.96579e-05, No Iterations 5
smoothSolver:  Solving for Uy, Initial residual = 0.0138047, Final residual = 0.0011121, No Iterations 5
GAMG:  Solving for p, Initial residual = 0.00275355, Final residual = 2.51949e-05, No Iterations 18
GAMG:  Solving for p, Initial residual = 0.000129519, Final residual = 1.13433e-06, No Iterations 30
time step continuity errors : sum local = 3.31662e-07, global = 1.06939e-07, cumulative = -2.61165e-05
smoothSolver:  Solving for nuTilda, Initial residual = 0.00178963, Final residual = 0.000167473, No Iterations 11
ExecutionTime = 2.14 s  ClockTime = 2 s

forceCoeffs forceCoeffs write:
    Coefficient	Total	Pressure	Viscous	Internal
    Cd:	45.1703	6.24866	38.9216	0
    Cd(f):	15.7319	-3.72762	19.4595	0
    Cd(r):	29.4384	9.97628	19.4622	0
    Cl:	13.7066	13.7039	0.00268344	0
    Cl(f):	0.350489	0.352944	-0.00245512	0
    Cl(r):	13.3561	13.351	0.00513857	0
    CmPitch:	-6.50281	-6.49901	-0.00379685	0
    CmRoll:	-6.85329	-6.85195	-0.00134172	0
    CmYaw:	22.5851	3.12433	19.4608	0
    Cs:	4.31555e-19	2.76991e-20	4.03856e-19	0
    Cs(f):	22.5851	3.12433	19.4608	0
    Cs(r):	-22.5851	-3.12433	-19.4608	0

    writing force and moment coefficient files.

forces forces write:
    Sum of forces
        Total    : (27.6668 8.39529 -2.64327e-19)
        Pressure : (3.8273 8.39364 -1.69657e-20)
        Viscous  : (23.8395 0.00164361 -2.47362e-19)
    Sum of moments
        Total    : (-4.19764 13.8334 3.98297)
        Pressure : (-4.19682 1.91365 3.98064)
        Viscous  : (-0.000821804 11.9198 0.00232557)
    writing force and moment files.

Time = 17

smoothSolver:  Solving for Ux, Initial residual = 0.000704845, Final residual = 4.70648e-05, No Iterations 5
smoothSolver:  Solving for Uy, Initial residual = 0.0134868, Final residual = 0.00108836, No Iterations 5
GAMG:  Solving for p, Initial residual = 0.0026077, Final residual = 2.32013e-05, No Iterations 20
GAMG:  Solving for p, Initial residual = 0.000130114, Final residual = 1.1177e-06, No Iterations 28
time step continuity errors : sum local = 3.25404e-07, global = 1.10878e-07, cumulative = -2.60056e-05
smoothSolver:  Solving for nuTilda, Initial residual = 0.00158229, Final residual = 0.000145958, No Iterations 11
ExecutionTime = 2.25 s  ClockTime = 2 s

forceCoeffs forceCoeffs write:
    Coefficient	Total	Pressure	Viscous	Internal
    Cd:	43.2552	6.16286	37.0923	0
    Cd(f):	14.9384	-3.60661	18.545	0
    Cd(r):	28.3168	9.76946	18.5474	0
    Cl:	13.3785	13.3761	0.00242713	0
    Cl(f):	0.442217	0.444757	-0.0025396	0
    Cl(r):	12.9363	12.9313	0.00496673	0
    CmPitch:	-6.24703	-6.24328	-0.00375317	0
    CmRoll:	-6.68925	-6.68804	-0.00121357	0
    CmYaw:	21.6276	3.08143	18.5462	0
    Cs:	4.3426e-19	2.60393e-20	4.08221e-19	0
    Cs(f):	21.6276	3.08143	18.5462	0
    Cs(r):	-21.6276	-3.08143	-18.5462	0

    writing force and moment coefficient files.

forces forces write:
    Sum of forces
        Total    : (26.4938 8.19433 -2.65984e-19)
        Pressure : (3.77475 8.19284 -1.59491e-20)
        Viscous  : (22.7191 0.00148662 -2.50035e-19)
    Sum of moments
        Total    : (-4.09716 13.2469 3.82631)
        Pressure : (-4.09642 1.88737 3.82401)
        Viscous  : (-0.000743309 11.3595 0.00229881)
    writing force and moment files.

Time = 18

smoothSolver:  Solving for Ux, Initial residual = 0.000678044, Final residual = 6.71056e-05, No Iterations 4
smoothSolver:  Solving for Uy, Initial residual = 0.0131997, Final residual = 0.00106673, No Iterations 5
GAMG:  Solving for p, Initial residual = 0.00254423, Final residual = 2.49269e-05, No Iterations 22
GAMG:  Solving for p, Initial residual = 0.000127471, Final residual = 1.15645e-06, No Iterations 32
time step continuity errors : sum local = 3.34978e-07, global = 1.14076e-07, cumulative = -2.58916e-05
smoothSolver:  Solving for nuTilda, Initial residual = 0.00140978, Final residual = 0.000128865, No Iterations 11
ExecutionTime = 2.38 s  ClockTime = 2 s

forceCoeffs forceCoeffs write:
    Coefficient	Total	Pressure	Viscous	Internal
    Cd:	41.553	6.05009	35.5029	0
    Cd(f):	14.7227	-3.02771	17.7504	0
    Cd(r):	26.8303	9.0778	17.7525	0
    Cl:	12.1076	12.1055	0.00212403	0
    Cl(f):	0.584605	0.58723	-0.00262543	0
    Cl(r):	11.523	11.5183	0.00474947	0
    CmPitch:	-5.46921	-5.46553	-0.00368745	0
    CmRoll:	-6.05382	-6.05276	-0.00106202	0
    CmYaw:	20.7765	3.02504	17.7514	0
    Cs:	4.34583e-19	2.23847e-20	4.12198e-19	0
    Cs(f):	20.7765	3.02504	17.7514	0
    Cs(r):	-20.7765	-3.02504	-17.7514	0

    writing force and moment coefficient files.

forces forces write:
    Sum of forces
        Total    : (25.4512 7.41593 -2.66182e-19)
        Pressure : (3.70568 7.41463 -1.37106e-20)
        Viscous  : (21.7455 0.00130097 -2.52472e-19)
    Sum of moments
        Total    : (-3.70796 12.7256 3.34989)
        Pressure : (-3.70731 1.85284 3.34763)
        Viscous  : (-0.000650485 10.8728 0.00225856)
    writing force and moment files.

Time = 19

smoothSolver:  Solving for Ux, Initial residual = 0.000662135, Final residual = 6.5432e-05, No Iterations 4
smoothSolver:  Solving for Uy, Initial residual = 0.0128713, Final residual = 0.00103801, No Iterations 5
GAMG:  Solving for p, Initial residual = 0.00236508, Final residual = 2.07429e-05, No Iterations 23
GAMG:  Solving for p, Initial residual = 0.000126331, Final residual = 1.20484e-06, No Iterations 25
time step continuity errors : sum local = 3.46414e-07, global = 1.35997e-07, cumulative = -2.57556e-05
smoothSolver:  Solving for nuTilda, Initial residual = 0.00126896, Final residual = 0.000114764, No Iterations 11
ExecutionTime = 2.5 s  ClockTime = 3 s

forceCoeffs forceCoeffs write:
    Coefficient	Total	Pressure	Viscous	Internal
    Cd:	39.9528	5.90214	34.0507	0
    Cd(f):	14.2123	-2.81216	17.0244	0
    Cd(r):	25.7405	8.7143	17.0262	0
    Cl:	11.5283	11.5265	0.00179826	0
    Cl(f):	0.736216	0.738932	-0.0027161	0
    Cl(r):	10.792	10.7875	0.00451436	0
    CmPitch:	-5.02791	-5.0243	-0.00361523	0
    CmRoll:	-5.76413	-5.76323	-0.000899128	0
    CmYaw:	19.9764	2.95107	17.0253	0
    Cs:	4.34902e-19	2.10215e-20	4.1388e-19	0
    Cs(f):	19.9764	2.95107	17.0253	0
    Cs(r):	-19.9764	-2.95107	-17.0253	0

    writing force and moment coefficient files.

forces forces write:
    Sum of forces
        Total    : (24.4711 7.06106 -2.66377e-19)
        Pressure : (3.61506 7.05996 -1.28756e-20)
        Viscous  : (20.856 0.00110143 -2.53502e-19)
    Sum of moments
        Total    : (-3.53053 12.2356 3.0796)
        Pressure : (-3.52998 1.80753 3.07738)
        Viscous  : (-0.000550716 10.428 0.00221433)
    writing force and moment files.

Time = 20

smoothSolver:  Solving for Ux, Initial residual = 0.000643917, Final residual = 6.30552e-05, No Iterations 4
smoothSolver:  Solving for Uy, Initial residual = 0.012633, Final residual = 0.00101897, No Iterations 5
GAMG:  Solving for p, Initial residual = 0.00238604, Final residual = 2.25543e-05, No Iterations 23
GAMG:  Solving for p, Initial residual = 0.00013009, Final residual = 1.26525e-06, No Iterations 22
time step continuity errors : sum local = 3.6017e-07, global = -1.76126e-07, cumulative = -2.59317e-05
smoothSolver:  Solving for nuTilda, Initial residual = 0.0011529, Final residual = 0.00010308, No Iterations 11
ExecutionTime = 2.66 s  ClockTime = 3 s

forceCoeffs forceCoeffs write:
    Coefficient	Total	Pressure	Viscous	Internal
    Cd:	38.4478	5.72642	32.7214	0
    Cd(f):	13.6817	-2.6783	16.36	0
    Cd(r):	24.7661	8.40472	16.3614	0
    Cl:	11.0844	11.083	0.0014267	0
    Cl(f):	0.917741	0.920545	-0.00280337	0
    Cl(r):	10.1667	10.1625	0.00423006	0
    CmPitch:	-4.62448	-4.62096	-0.00351671	0
    CmRoll:	-5.54222	-5.54151	-0.000713348	0
    CmYaw:	19.2239	2.86321	16.3607	0
    Cs:	4.35627e-19	2.21453e-20	4.13481e-19	0
    Cs(f):	19.2239	2.86321	16.3607	0
    Cs(r):	-19.2239	-2.86321	-16.3607	0

    writing force and moment coefficient files.

forces forces write:
    Sum of forces
        Total    : (23.5493 6.78922 -2.66821e-19)
        Pressure : (3.50743 6.78835 -1.3564e-20)
        Viscous  : (20.0419 0.000873851 -2.53257e-19)
    Sum of moments
        Total    : (-3.39461 11.7746 2.83249)
        Pressure : (-3.39417 1.75372 2.83034)
        Viscous  : (-0.000436926 10.0209 0.00215399)
    writing force and moment files.

Time = 21

smoothSolver:  Solving for Ux, Initial residual = 0.000626906, Final residual = 6.07836e-05, No Iterations 4
smoothSolver:  Solving for Uy, Initial residual = 0.012427, Final residual = 0.00100255, No Iterations 5
GAMG:  Solving for p, Initial residual = 0.00240088, Final residual = 1.97952e-05, No Iterations 25
GAMG:  Solving for p, Initial residual = 0.000127505, Final residual = 1.24997e-06, No Iterations 22
time step continuity errors : sum local = 3.51526e-07, global = -1.8044e-07, cumulative = -2.61121e-05
smoothSolver:  Solving for nuTilda, Initial residual = 0.00105749, Final residual = 9.35968e-05, No Iterations 11
ExecutionTime = 2.77 s  ClockTime = 3 s

forceCoeffs forceCoeffs write:
    Coefficient	Total	Pressure	Viscous	Internal
    Cd:	37.0236	5.52338	31.5003	0
    Cd(f):	13.1844	-2.5652	15.7496	0
    Cd(r):	23.8392	8.08858	15.7506	0
    Cl:	10.6548	10.6538	0.00101889	0
    Cl(f):	1.11625	1.11914	-0.00289482	0
    Cl(r):	9.53855	9.53463	0.00391372	0
    CmPitch:	-4.21115	-4.20775	-0.00340427	0
    CmRoll:	-5.3274	-5.32689	-0.000509446	0
    CmYaw:	18.5118	2.76169	15.7501	0
    Cs:	4.37263e-19	2.67226e-20	4.10541e-19	0
    Cs(f):	18.5118	2.76169	15.7501	0
    Cs(r):	-18.5118	-2.76169	-15.7501	0

    writing force and moment coefficient files.

forces forces write:
    Sum of forces
        Total    : (22.677 6.52606 -2.67824e-19)
        Pressure : (3.38307 6.52544 -1.63676e-20)
        Viscous  : (19.2939 0.000624072 -2.51456e-19)
    Sum of moments
        Total    : (-3.26303 11.3385 2.57933)
        Pressure : (-3.26272 1.69153 2.57724)
        Viscous  : (-0.000312036 9.64696 0.00208512)
    writing force and moment files.

Time = 22

smoothSolver:  Solving for Ux, Initial residual = 0.000611427, Final residual = 5.8753e-05, No Iterations 4
smoothSolver:  Solving for Uy, Initial residual = 0.0122379, Final residual = 0.000987335, No Iterations 5
GAMG:  Solving for p, Initial residual = 0.00235614, Final residual = 2.05781e-05, No Iterations 25
GAMG:  Solving for p, Initial residual = 0.000128072, Final residual = 1.22379e-06, No Iterations 21
time step continuity errors : sum local = 3.39539e-07, global = 1.59112e-07, cumulative = -2.5953e-05
smoothSolver:  Solving for nuTilda, Initial residual = 0.00098033, Final residual = 8.58877e-05, No Iterations 11
ExecutionTime = 2.88 s  ClockTime = 3 s

forceCoeffs forceCoeffs write:
    Coefficient	Total	Pressure	Viscous	Internal
    Cd:	35.6709	5.29624	30.3747	0
    Cd(f):	12.735	-2.45204	15.1871	0
    Cd(r):	22.9359	7.74828	15.1876	0
    Cl:	10.2009	10.2003	0.000575376	0
    Cl(f):	1.32152	1.32451	-0.00299592	0
    Cl(r):	8.87938	8.87581	0.00357129	0
    CmPitch:	-3.77893	-3.77565	-0.00328361	0
    CmRoll:	-5.10045	-5.10016	-0.000287688	0
    CmYaw:	17.8355	2.64812	15.1873	0
    Cs:	4.39925e-19	3.32752e-20	4.0665e-19	0
    Cs(f):	17.8355	2.64812	15.1873	0
    Cs(r):	-17.8355	-2.64812	-15.1873	0

    writing force and moment coefficient files.

forces forces write:
    Sum of forces
        Total    : (21.8485 6.24805 -2.69454e-19)
        Pressure : (3.24395 6.2477 -2.0381e-20)
        Viscous  : (18.6045 0.000352418 -2.49073e-19)
    Sum of moments
        Total    : (-3.12403 10.9242 2.3146)
        Pressure : (-3.12385 1.62197 2.31258)
        Viscous  : (-0.000176209 9.30225 0.00201121)
    writing force and moment files.

Time = 23

smoothSolver:  Solving for Ux, Initial residual = 0.000597161, Final residual = 5.69525e-05, No Iterations 4
smoothSolver:  Solving for Uy, Initial residual = 0.0120599, Final residual = 0.000972959, No Iterations 5
GAMG:  Solving for p, Initial residual = 0.00232109, Final residual = 2.0645e-05, No Iterations 25
GAMG:  Solving for p, Initial residual = 0.000128391, Final residual = 1.17197e-06, No Iterations 21
time step continuity errors : sum local = 3.20363e-07, global = 1.46697e-07, cumulative = -2.58063e-05
smoothSolver:  Solving for nuTilda, Initial residual = 0.00091336, Final residual = 7.95241e-05, No Iterations 11
ExecutionTime = 2.99 s  ClockTime = 3 s

forceCoeffs forceCoeffs write:
    Coefficient	Total	Pressure	Viscous	Internal
    Cd:	34.3789	5.04491	29.334	0
    Cd(f):	12.328	-2.33898	14.667	0
    Cd(r):	22.051	7.38389	14.6671	0
    Cl:	9.72297	9.72287	9.82911e-05	0
    Cl(f):	1.53224	1.53535	-0.00311099	0
    Cl(r):	8.19073	8.18752	0.00320928	0
    CmPitch:	-3.32925	-3.32609	-0.00316013	0
    CmRoll:	-4.86149	-4.86144	-4.91456e-05	0
    CmYaw:	17.1895	2.52246	14.667	0
    Cs:	4.42624e-19	3.84255e-20	4.04199e-19	0
    Cs(f):	17.1895	2.52246	14.667	0
    Cs(r):	-17.1895	-2.52246	-14.667	0

    writing force and moment coefficient files.

forces forces write:
    Sum of forces
        Total    : (21.0571 5.95532 -2.71107e-19)
        Pressure : (3.09001 5.95526 -2.35356e-20)
        Viscous  : (17.9671 6.02033e-05 -2.47572e-19)
    Sum of moments
        Total    : (-2.97766 10.5285 2.03916)
        Pressure : (-2.97763 1.545 2.03723)
        Viscous  : (-3.01017e-05 8.98355 0.00193558)
    writing force and moment files.

Time = 24

smoothSolver:  Solving for Ux, Initial residual = 0.000583667, Final residual = 5.53676e-05, No Iterations 4
smoothSolver:  Solving for Uy, Initial residual = 0.0118923, Final residual = 0.000959341, No Iterations 5
GAMG:  Solving for p, Initial residual = 0.00233995, Final residual = 1.99529e-05, No Iterations 25
GAMG:  Solving for p, Initial residual = 0.000126741, Final residual = 1.14855e-06, No Iterations 21
time step continuity errors : sum local = 3.08963e-07, global = 1.36693e-07, cumulative = -2.56696e-05
smoothSolver:  Solving for nuTilda, Initial residual = 0.000853803, Final residual = 7.41128e-05, No Iterations 11
ExecutionTime = 3.11 s  ClockTime = 3 s

forceCoeffs forceCoeffs write:
    Coefficient	Total	Pressure	Viscous	Internal
    Cd:	33.1416	4.77246	28.3692	0
    Cd(f):	11.9552	-2.22953	14.1848	0
    Cd(r):	21.1864	7.00199	14.1844	0
    Cl:	9.23111	9.23152	-0.000406863	0
    Cl(f):	1.74713	1.75038	-0.00324135	0
    Cl(r):	7.48398	7.48114	0.00283448	0
    CmPitch:	-2.86842	-2.86538	-0.00303792	0
    CmRoll:	-4.61555	-4.61576	0.000203431	0
    CmYaw:	16.5708	2.38623	14.1846	0
    Cs:	4.44214e-19	4.08741e-20	4.0334e-19	0
    Cs(f):	16.5708	2.38623	14.1846	0
    Cs(r):	-16.5708	-2.38623	-14.1846	0

    writing force and moment coefficient files.

forces forces write:
    Sum of forces
        Total    : (20.2992 5.65405 -2.72081e-19)
        Pressure : (2.92313 5.6543 -2.50354e-20)
        Viscous  : (17.3761 -0.000249203 -2.47046e-19)
    Sum of moments
        Total    : (-2.82703 10.1496 1.75691)
        Pressure : (-2.82715 1.46157 1.75505)
        Viscous  : (0.000124602 8.68805 0.00186072)
    writing force and moment files.

Time = 25

smoothSolver:  Solving for Ux, Initial residual = 0.000570407, Final residual = 5.39062e-05, No Iterations 4
smoothSolver:  Solving for Uy, Initial residual = 0.0117287, Final residual = 0.000946398, No Iterations 5
GAMG:  Solving for p, Initial residual = 0.0023431, Final residual = 2.21861e-05, No Iterations 23
GAMG:  Solving for p, Initial residual = 0.000126442, Final residual = 1.19751e-06, No Iterations 21
time step continuity errors : sum local = 3.16872e-07, global = 1.43435e-07, cumulative = -2.55262e-05
smoothSolver:  Solving for nuTilda, Initial residual = 0.000802418, Final residual = 6.97041e-05, No Iterations 11
ExecutionTime = 3.21 s  ClockTime = 3 s

forceCoeffs forceCoeffs write:
    Coefficient	Total	Pressure	Viscous	Internal
    Cd:	31.9621	4.48983	27.4723	0
    Cd(f):	11.6162	-2.12039	13.7366	0
    Cd(r):	20.3459	6.61022	13.7357	0
    Cl:	8.72968	8.73061	-0.000930824	0
    Cl(f):	1.96237	1.96575	-0.00338692	0
    Cl(r):	6.76731	6.76485	0.00245609	0
    CmPitch:	-2.40247	-2.39955	-0.00292151	0
    CmRoll:	-4.36484	-4.3653	0.000465412	0
    CmYaw:	15.9811	2.24491	13.7361	0
    Cs:	4.44552e-19	4.05058e-20	4.04046e-19	0
    Cs(f):	15.9811	2.24491	13.7361	0
    Cs(r):	-15.9811	-2.24491	-13.7361	0

    writing force and moment coefficient files.

forces forces write:
    Sum of forces
        Total    : (19.5768 5.34693 -2.72288e-19)
        Pressure : (2.75002 5.3475 -2.48098e-20)
        Viscous  : (16.8268 -0.00057013 -2.47478e-19)
    Sum of moments
        Total    : (-2.67346 9.7884 1.47151)
        Pressure : (-2.67375 1.37501 1.46972)
        Viscous  : (0.000285065 8.41339 0.00178942)
    writing force and moment files.

Time = 26

smoothSolver:  Solving for Ux, Initial residual = 0.0005572, Final residual = 5.25267e-05, No Iterations 4
smoothSolver:  Solving for Uy, Initial residual = 0.0115667, Final residual = 0.000933725, No Iterations 5
GAMG:  Solving for p, Initial residual = 0.00231029, Final residual = 2.07799e-05, No Iterations 20
GAMG:  Solving for p, Initial residual = 0.000123833, Final residual = 1.23808e-06, No Iterations 21
time step continuity errors : sum local = 3.21876e-07, global = 1.40644e-07, cumulative = -2.53855e-05
smoothSolver:  Solving for nuTilda, Initial residual = 0.000757332, Final residual = 6.62169e-05, No Iterations 11
ExecutionTime = 3.31 s  ClockTime = 3 s

forceCoeffs forceCoeffs write:
    Coefficient	Total	Pressure	Viscous	Internal
    Cd:	30.8325	4.19574	26.6367	0
    Cd(f):	11.3065	-2.0126	13.3191	0
    Cd(r):	19.526	6.20834	13.3176	0
    Cl:	8.21948	8.22094	-0.00145875	0
    Cl(f):	2.17385	2.1774	-0.00354905	0
    Cl(r):	6.04563	6.04354	0.0020903	0
    CmPitch:	-1.93589	-1.93307	-0.00281967	0
    CmRoll:	-4.10974	-4.11047	0.000729375	0
    CmYaw:	15.4162	2.09787	13.3184	0
    Cs:	4.43786e-19	3.83085e-20	4.05477e-19	0
    Cs(f):	15.4162	2.09787	13.3184	0
    Cs(r):	-15.4162	-2.09787	-13.3184	0

    writing force and moment coefficient files.

forces forces write:
    Sum of forces
        Total    : (18.8849 5.03443 -2.71819e-19)
        Pressure : (2.56989 5.03533 -2.3464e-20)
        Viscous  : (16.315 -0.000893484 -2.48355e-19)
    Sum of moments
        Total    : (-2.51722 9.44244 1.18573)
        Pressure : (-2.51766 1.28494 1.184)
        Viscous  : (0.000446742 8.15749 0.00172705)
    writing force and moment files.

Time = 27

smoothSolver:  Solving for Ux, Initial residual = 0.000542831, Final residual = 5.12161e-05, No Iterations 4
smoothSolver:  Solving for Uy, Initial residual = 0.0114128, Final residual = 0.000921503, No Iterations 5
GAMG:  Solving for p, Initial residual = 0.00226733, Final residual = 2.19002e-05, No Iterations 21
GAMG:  Solving for p, Initial residual = 0.000123028, Final residual = 1.05446e-06, No Iterations 22
time step continuity errors : sum local = 2.6933e-07, global = -1.08789e-07, cumulative = -2.54943e-05
smoothSolver:  Solving for nuTilda, Initial residual = 0.000719632, Final residual = 6.3349e-05, No Iterations 11
ExecutionTime = 3.43 s  ClockTime = 3 s

forceCoeffs forceCoeffs write:
    Coefficient	Total	Pressure	Viscous	Internal
    Cd:	29.7515	3.89475	25.8567	0
    Cd(f):	11.0258	-1.90355	12.9293	0
    Cd(r):	18.7257	5.7983	12.9274	0
    Cl:	7.69987	7.70186	-0.00198252	0
    Cl(f):	2.37842	2.38215	-0.00372627	0
    Cl(r):	5.32145	5.31971	0.00174375	0
    CmPitch:	-1.47152	-1.46878	-0.00273501	0
    CmRoll:	-3.84994	-3.85093	0.000991261	0
    CmYaw:	14.8757	1.94738	12.9284	0
    Cs:	4.42488e-19	3.57239e-20	4.06764e-19	0
    Cs(f):	14.8757	1.94738	12.9284	0
    Cs(r):	-14.8757	-1.94738	-12.9284	0

    writing force and moment coefficient files.

forces forces write:
    Sum of forces
        Total    : (18.2228 4.71617 -2.71024e-19)
        Pressure : (2.38554 4.71739 -2.18809e-20)
        Viscous  : (15.8372 -0.00121429 -2.49143e-19)
    Sum of moments
        Total    : (-2.35809 9.11139 0.901303)
        Pressure : (-2.35869 1.19277 0.899628)
        Viscous  : (0.000607147 7.91862 0.00167519)
    writing force and moment files.

Time = 28

smoothSolver:  Solving for Ux, Initial residual = 0.000528658, Final residual = 4.99373e-05, No Iterations 4
smoothSolver:  Solving for Uy, Initial residual = 0.0112659, Final residual = 0.000909654, No Iterations 5
GAMG:  Solving for p, Initial residual = 0.00226328, Final residual = 1.8609e-05, No Iterations 25
GAMG:  Solving for p, Initial residual = 0.000118408, Final residual = 1.17091e-06, No Iterations 21
time step continuity errors : sum local = 2.93574e-07, global = 1.23149e-07, cumulative = -2.53712e-05
smoothSolver:  Solving for nuTilda, Initial residual = 0.000689102, Final residual = 6.11677e-05, No Iterations 11
ExecutionTime = 3.53 s  ClockTime = 4 s

forceCoeffs forceCoeffs write:
    Coefficient	Total	Pressure	Viscous	Internal
    Cd:	28.718	3.59067	25.1273	0
    Cd(f):	10.7681	-1.79677	12.5649	0
    Cd(r):	17.9499	5.38744	12.5624	0
    Cl:	7.18172	7.18421	-0.00249746	0
    Cl(f):	2.57178	2.5757	-0.00391695	0
    Cl(r):	4.60993	4.60852	0.00141949	0
    CmPitch:	-1.01908	-1.01641	-0.00266822	0
    CmRoll:	-3.59086	-3.59211	0.00124873	0
    CmYaw:	14.359	1.79534	12.5637	0
    Cs:	4.4116e-19	3.34e-20	4.0776e-19	0
    Cs(f):	14.359	1.79534	12.5637	0
    Cs(r):	-14.359	-1.79534	-12.5637	0

    writing force and moment coefficient files.

forces forces write:
    Sum of forces
        Total    : (17.5898 4.3988 -2.70211e-19)
        Pressure : (2.19929 4.40033 -2.04575e-20)
        Viscous  : (15.3905 -0.0015297 -2.49753e-19)
    Sum of moments
        Total    : (-2.1994 8.79488 0.624184)
        Pressure : (-2.20017 1.09964 0.62255)
        Viscous  : (0.000764848 7.69524 0.00163428)
    writing force and moment files.

Time = 29

smoothSolver:  Solving for Ux, Initial residual = 0.000515048, Final residual = 4.86925e-05, No Iterations 4
smoothSolver:  Solving for Uy, Initial residual = 0.0111218, Final residual = 0.000897851, No Iterations 5
GAMG:  Solving for p, Initial residual = 0.00224449, Final residual = 2.23271e-05, No Iterations 23
GAMG:  Solving for p, Initial residual = 0.000118519, Final residual = 1.12892e-06, No Iterations 22
time step continuity errors : sum local = 2.78059e-07, global = -1.05416e-07, cumulative = -2.54766e-05
smoothSolver:  Solving for nuTilda, Initial residual = 0.000665051, Final residual = 5.94239e-05, No Iterations 11
ExecutionTime = 3.64 s  ClockTime = 4 s

forceCoeffs forceCoeffs write:
    Coefficient	Total	Pressure	Viscous	Internal
    Cd:	27.7357	3.29152	24.4442	0
    Cd(f):	10.5373	-1.6863	12.2236	0
    Cd(r):	17.1984	4.97782	12.2206	0
    Cl:	6.66112	6.66412	-0.00299297	0
    Cl(f):	2.75302	2.75714	-0.00412473	0
    Cl(r):	3.90811	3.90697	0.00113176	0
    CmPitch:	-0.577544	-0.574916	-0.00262824	0
    CmRoll:	-3.33056	-3.33206	0.00149649	0
    CmYaw:	13.8678	1.64576	12.2221	0
    Cs:	4.40151e-19	3.15373e-20	4.08614e-19	0
    Cs(f):	13.8678	1.64576	12.2221	0
    Cs(r):	-13.8678	-1.64576	-12.2221	0

    writing force and moment coefficient files.

forces forces write:
    Sum of forces
        Total    : (16.9881 4.07994 -2.69592e-19)
        Pressure : (2.01606 4.08177 -1.93166e-20)
        Viscous  : (14.972 -0.00183319 -2.50276e-19)
    Sum of moments
        Total    : (-2.03997 8.49405 0.353746)
        Pressure : (-2.04089 1.00803 0.352136)
        Viscous  : (0.000916597 7.48602 0.0016098)
    writing force and moment files.

Time = 30

smoothSolver:  Solving for Ux, Initial residual = 0.000500783, Final residual = 4.74726e-05, No Iterations 4
smoothSolver:  Solving for Uy, Initial residual = 0.0109808, Final residual = 0.000886263, No Iterations 5
GAMG:  Solving for p, Initial residual = 0.00220335, Final residual = 1.79828e-05, No Iterations 25
GAMG:  Solving for p, Initial residual = 0.000113347, Final residual = 1.05986e-06, No Iterations 22
time step continuity errors : sum local = 2.5633e-07, global = -1.15067e-07, cumulative = -2.55917e-05
smoothSolver:  Solving for nuTilda, Initial residual = 0.000644106, Final residual = 5.79759e-05, No Iterations 11
ExecutionTime = 3.75 s  ClockTime = 4 s

forceCoeffs forceCoeffs write:
    Coefficient	Total	Pressure	Viscous	Internal
    Cd:	26.7989	2.9954	23.8035	0
    Cd(f):	10.3209	-1.58259	11.9035	0
    Cd(r):	16.478	4.57799	11.9	0
    Cl:	6.15711	6.16059	-0.00347905	0
    Cl(f):	2.91679	2.92113	-0.00434519	0
    Cl(r):	3.24032	3.23945	0.00086614	0
    CmPitch:	-0.161766	-0.15916	-0.00260567	0
    CmRoll:	-3.07855	-3.08029	0.00173953	0
    CmYaw:	13.3995	1.4977	11.9018	0
    Cs:	4.39535e-19	3.01364e-20	4.09398e-19	0
    Cs(f):	13.3995	1.4977	11.9018	0
    Cs(r):	-13.3995	-1.4977	-11.9018	0

    writing force and moment coefficient files.

forces forces write:
    Sum of forces
        Total    : (16.4144 3.77123 -2.69215e-19)
        Pressure : (1.83468 3.77336 -1.84586e-20)
        Viscous  : (14.5797 -0.00213092 -2.50757e-19)
    Sum of moments
        Total    : (-1.88561 8.20718 0.0990814)
        Pressure : (-1.88668 0.917342 0.0974854)
        Viscous  : (0.00106546 7.28983 0.00159597)
    writing force and moment files.

Time = 31

smoothSolver:  Solving for Ux, Initial residual = 0.000486627, Final residual = 4.62654e-05, No Iterations 4
smoothSolver:  Solving for Uy, Initial residual = 0.0108424, Final residual = 0.000874924, No Iterations 5
GAMG:  Solving for p, Initial residual = 0.00215806, Final residual = 1.75165e-05, No Iterations 25
GAMG:  Solving for p, Initial residual = 0.00011034, Final residual = 1.01319e-06, No Iterations 22
time step continuity errors : sum local = 2.40908e-07, global = -1.03791e-07, cumulative = -2.56955e-05
smoothSolver:  Solving for nuTilda, Initial residual = 0.000622816, Final residual = 5.64456e-05, No Iterations 11
ExecutionTime = 3.86 s  ClockTime = 4 s

forceCoeffs forceCoeffs write:
    Coefficient	Total	Pressure	Viscous	Internal
    Cd:	25.9137	2.7115	23.2022	0
    Cd(f):	10.1222	-1.48086	11.6031	0
    Cd(r):	15.7915	4.19236	11.5992	0
    Cl:	5.66929	5.67322	-0.00393199	0
    Cl(f):	3.06242	3.06701	-0.00459325	0
    Cl(r):	2.60687	2.6062	0.000661259	0
    CmPitch:	0.227777	0.230405	-0.00262726	0
    CmRoll:	-2.83464	-2.83661	0.001966	0
    CmYaw:	12.9569	1.35575	11.6011	0
    Cs:	4.39228e-19	2.91049e-20	4.10123e-19	0
    Cs(f):	12.9569	1.35575	11.6011	0
    Cs(r):	-12.9569	-1.35575	-11.6011	0

    writing force and moment coefficient files.

forces forces write:
    Sum of forces
        Total    : (15.8722 3.47244 -2.69027e-19)
        Pressure : (1.6608 3.47485 -1.78268e-20)
        Viscous  : (14.2114 -0.00240835 -2.51201e-19)
    Sum of moments
        Total    : (-1.73622 7.93608 -0.139514)
        Pressure : (-1.73742 0.830398 -0.141123)
        Viscous  : (0.00120417 7.10568 0.00160919)
    writing force and moment files.

Time = 32

smoothSolver:  Solving for Ux, Initial residual = 0.000472657, Final residual = 4.50724e-05, No Iterations 4
smoothSolver:  Solving for Uy, Initial residual = 0.0107059, Final residual = 0.000863727, No Iterations 5
GAMG:  Solving for p, Initial residual = 0.00213745, Final residual = 1.72497e-05, No Iterations 25
GAMG:  Solving for p, Initial residual = 0.000107623, Final residual = 9.70758e-07, No Iterations 22
time step continuity errors : sum local = 2.2712e-07, global = -9.09679e-08, cumulative = -2.57864e-05
smoothSolver:  Solving for nuTilda, Initial residual = 0.000604626, Final residual = 5.49512e-05, No Iterations 11
ExecutionTime = 3.98 s  ClockTime = 4 s

forceCoeffs forceCoeffs write:
    Coefficient	Total	Pressure	Viscous	Internal
    Cd:	25.0778	2.44039	22.6375	0
    Cd(f):	9.9376	-1.38332	11.3209	0
    Cd(r):	15.1402	3.82371	11.3165	0
    Cl:	5.20265	5.20703	-0.00437701	0
    Cl(f):	3.18794	3.19281	-0.0048621	0
    Cl(r):	2.01471	2.01422	0.000485086	0
    CmPitch:	0.586617	0.589291	-0.00267359	0
    CmRoll:	-2.60133	-2.60351	0.00218851	0
    CmYaw:	12.5389	1.22019	11.3187	0
    Cs:	4.39179e-19	2.83534e-20	4.10826e-19	0
    Cs(f):	12.5389	1.22019	11.3187	0
    Cs(r):	-12.5389	-1.22019	-11.3187	0

    writing force and moment coefficient files.

forces forces write:
    Sum of forces
        Total    : (15.3602 3.18662 -2.68997e-19)
        Pressure : (1.49474 3.18931 -1.73665e-20)
        Viscous  : (13.8654 -0.00268092 -2.51631e-19)
    Sum of moments
        Total    : (-1.59331 7.68009 -0.359303)
        Pressure : (-1.59465 0.747369 -0.360941)
        Viscous  : (0.00134046 6.93272 0.00163758)
    writing force and moment files.

Time = 33

smoothSolver:  Solving for Ux, Initial residual = 0.000458682, Final residual = 4.38896e-05, No Iterations 4
smoothSolver:  Solving for Uy, Initial residual = 0.010572, Final residual = 0.000852656, No Iterations 5
GAMG:  Solving for p, Initial residual = 0.0021354, Final residual = 2.08738e-05, No Iterations 23
GAMG:  Solving for p, Initial residual = 0.000107476, Final residual = 1.00627e-06, No Iterations 24
time step continuity errors : sum local = 2.31995e-07, global = -7.49647e-08, cumulative = -2.58614e-05
smoothSolver:  Solving for nuTilda, Initial residual = 0.000588685, Final residual = 5.34704e-05, No Iterations 11
ExecutionTime = 4.09 s  ClockTime = 4 s

forceCoeffs forceCoeffs write:
    Coefficient	Total	Pressure	Viscous	Internal
    Cd:	24.2924	2.18552	22.1069	0
    Cd(f):	9.76792	-1.28792	11.0558	0
    Cd(r):	14.5245	3.47344	11.051	0
    Cl:	4.75654	4.76136	-0.00481774	0
    Cl(f):	3.29222	3.29738	-0.00515904	0
    Cl(r):	1.46432	1.46398	0.000341295	0
    CmPitch:	0.913952	0.916702	-0.00275017	0
    CmRoll:	-2.37827	-2.38068	0.00240887	0
    CmYaw:	12.1462	1.09276	11.0534	0
    Cs:	4.39292e-19	2.77816e-20	4.11511e-19	0
    Cs(f):	12.1462	1.09276	11.0534	0
    Cs(r):	-12.1462	-1.09276	-11.0534	0

    writing force and moment coefficient files.

forces forces write:
    Sum of forces
        Total    : (14.8791 2.91338 -2.69066e-19)
        Pressure : (1.33863 2.91633 -1.70162e-20)
        Viscous  : (13.5405 -0.00295087 -2.5205e-19)
    Sum of moments
        Total    : (-1.45669 7.43954 -0.559795)
        Pressure : (-1.45817 0.669316 -0.56148)
        Viscous  : (0.00147543 6.77023 0.00168448)
    writing force and moment files.

Time = 34

smoothSolver:  Solving for Ux, Initial residual = 0.000444721, Final residual = 4.27135e-05, No Iterations 4
smoothSolver:  Solving for Uy, Initial residual = 0.0104387, Final residual = 0.000841671, No Iterations 5
GAMG:  Solving for p, Initial residual = 0.00208493, Final residual = 1.98281e-05, No Iterations 23
GAMG:  Solving for p, Initial residual = 0.000103801, Final residual = 1.01596e-06, No Iterations 24
time step continuity errors : sum local = 2.31019e-07, global = -7.3064e-08, cumulative = -2.59345e-05
smoothSolver:  Solving for nuTilda, Initial residual = 0.000570206, Final residual = 5.17596e-05, No Iterations 11
ExecutionTime = 4.2 s  ClockTime = 4 s

forceCoeffs forceCoeffs write:
    Coefficient	Total	Pressure	Viscous	Internal
    Cd:	23.5571	1.94863	21.6085	0
    Cd(f):	9.60324	-1.20363	10.8069	0
    Cd(r):	13.9539	3.15226	10.8016	0
    Cl:	4.35064	4.3559	-0.00526059	0
    Cl(f):	3.37208	3.37757	-0.00549262	0
    Cl(r):	0.978557	0.978325	0.000232029	0
    CmPitch:	1.19676	1.19962	-0.00286233	0
    CmRoll:	-2.17532	-2.17795	0.0026303	0
    CmYaw:	11.7786	0.974316	10.8042	0
    Cs:	4.39462e-19	2.73101e-20	4.12152e-19	0
    Cs(f):	11.7786	0.974316	10.8042	0
    Cs(r):	-11.7786	-0.974316	-10.8042	0

    writing force and moment coefficient files.

forces forces write:
    Sum of forces
        Total    : (14.4287 2.66477 -2.69171e-19)
        Pressure : (1.19354 2.66799 -1.67274e-20)
        Viscous  : (13.2352 -0.00322211 -2.52443e-19)
    Sum of moments
        Total    : (-1.33238 7.21437 -0.733017)
        Pressure : (-1.33399 0.596768 -0.73477)
        Viscous  : (0.00161106 6.6176 0.00175317)
    writing force and moment files.

Time = 35

smoothSolver:  Solving for Ux, Initial residual = 0.000431228, Final residual = 4.15495e-05, No Iterations 4
smoothSolver:  Solving for Uy, Initial residual = 0.0103058, Final residual = 0.000830605, No Iterations 5
GAMG:  Solving for p, Initial residual = 0.00207203, Final residual = 1.7992e-05, No Iterations 23
GAMG:  Solving for p, Initial residual = 9.92894e-05, Final residual = 9.8026e-07, No Iterations 24
time step continuity errors : sum local = 2.20195e-07, global = -6.97912e-08, cumulative = -2.60042e-05
smoothSolver:  Solving for nuTilda, Initial residual = 0.000549349, Final residual = 4.98452e-05, No Iterations 11
ExecutionTime = 4.31 s  ClockTime = 4 s

forceCoeffs forceCoeffs write:
    Coefficient	Total	Pressure	Viscous	Internal
    Cd:	22.8734	1.7327	21.1407	0
    Cd(f):	9.44675	-1.12644	10.5732	0
    Cd(r):	13.4266	2.85914	10.5675	0
    Cl:	3.97986	3.98558	-0.00572076	0
    Cl(f):	3.42817	3.43404	-0.00586768	0
    Cl(r):	0.551694	0.551547	0.000146914	0
    CmPitch:	1.43824	1.44124	-0.0030073	0
    CmRoll:	-1.98993	-1.99279	0.00286038	0
    CmYaw:	11.4367	0.866352	10.5703	0
    Cs:	4.39651e-19	2.68915e-20	4.1276e-19	0
    Cs(f):	11.4367	0.866352	10.5703	0
    Cs(r):	-11.4367	-0.866352	-10.5703	0

    writing force and moment coefficient files.

forces forces write:
    Sum of forces
        Total    : (14.0099 2.43767 -2.69286e-19)
        Pressure : (1.06128 2.44117 -1.6471e-20)
        Viscous  : (12.9487 -0.00350397 -2.52815e-19)
    Sum of moments
        Total    : (-1.21883 7.00497 -0.88092)
        Pressure : (-1.22059 0.530641 -0.882762)
        Viscous  : (0.00175198 6.47433 0.00184197)
    writing force and moment files.

Time = 36

smoothSolver:  Solving for Ux, Initial residual = 0.000418091, Final residual = 4.03997e-05, No Iterations 4
smoothSolver:  Solving for Uy, Initial residual = 0.0101703, Final residual = 0.000819553, No Iterations 5
GAMG:  Solving for p, Initial residual = 0.00206565, Final residual = 1.93406e-05, No Iterations 21
GAMG:  Solving for p, Initial residual = 9.64933e-05, Final residual = 9.5382e-07, No Iterations 26
time step continuity errors : sum local = 2.12054e-07, global = -6.59491e-08, cumulative = -2.60702e-05
smoothSolver:  Solving for nuTilda, Initial residual = 0.000527606, Final residual = 4.77768e-05, No Iterations 11
ExecutionTime = 4.43 s  ClockTime = 4 s

forceCoeffs forceCoeffs write:
    Coefficient	Total	Pressure	Viscous	Internal
    Cd:	22.241	1.53891	20.7021	0
    Cd(f):	9.29855	-1.05559	10.3541	0
    Cd(r):	12.9424	2.59451	10.3479	0
    Cl:	3.64389	3.6501	-0.0062135	0
    Cl(f):	3.46021	3.4665	-0.00628564	0
    Cl(r):	0.183672	0.1836	7.21336e-05	0
    CmPitch:	1.63827	1.64145	-0.00317888	0
    CmRoll:	-1.82194	-1.82505	0.00310675	0
    CmYaw:	11.1205	0.769457	10.351	0
    Cs:	4.39798e-19	2.6556e-20	4.13242e-19	0
    Cs(f):	11.1205	0.769457	10.351	0
    Cs(r):	-11.1205	-0.769457	-10.351	0

    writing force and moment coefficient files.

forces forces write:
    Sum of forces
        Total    : (13.6226 2.23188 -2.69376e-19)
        Pressure : (0.942585 2.23569 -1.62655e-20)
        Viscous  : (12.68 -0.00380577 -2.53111e-19)
    Sum of moments
        Total    : (-1.11594 6.8113 -1.00344)
        Pressure : (-1.11784 0.471293 -1.00539)
        Viscous  : (0.00190288 6.34001 0.00194707)
    writing force and moment files.

Time = 37

smoothSolver:  Solving for Ux, Initial residual = 0.000405359, Final residual = 3.92663e-05, No Iterations 4
smoothSolver:  Solving for Uy, Initial residual = 0.010033, Final residual = 0.000808286, No Iterations 5
GAMG:  Solving for p, Initial residual = 0.00200664, Final residual = 1.67091e-05, No Iterations 21
GAMG:  Solving for p, Initial residual = 9.08035e-05, Final residual = 8.55436e-07, No Iterations 26
time step continuity errors : sum local = 1.88466e-07, global = -5.82755e-08, cumulative = -2.61285e-05
smoothSolver:  Solving for nuTilda, Initial residual = 0.000505848, Final residual = 4.56403e-05, No Iterations 11
ExecutionTime = 4.54 s  ClockTime = 5 s

forceCoeffs forceCoeffs write:
    Coefficient	Total	Pressure	Viscous	Internal
    Cd:	21.659	1.3674	20.2916	0
    Cd(f):	9.15553	-0.99365	10.1492	0
    Cd(r):	12.5035	2.36105	10.1424	0
    Cl:	3.34796	3.3547	-0.00674012	0
    Cl(f):	3.46788	3.47463	-0.00674794	0
    Cl(r):	-0.119918	-0.119926	7.82557e-06	0
    CmPitch:	1.7939	1.79728	-0.00337788	0
    CmRoll:	-1.67398	-1.67735	0.00337006	0
    CmYaw:	10.8295	0.683702	10.1458	0
    Cs:	4.39889e-19	2.63374e-20	4.13551e-19	0
    Cs(f):	10.8295	0.683702	10.1458	0
    Cs(r):	-10.8295	-0.683702	-10.1458	0

    writing force and moment coefficient files.

forces forces write:
    Sum of forces
        Total    : (13.2662 2.05063 -2.69432e-19)
        Pressure : (0.837536 2.05476 -1.61316e-20)
        Viscous  : (12.4286 -0.00412832 -2.533e-19)
    Sum of moments
        Total    : (-1.02531 6.63308 -1.09876)
        Pressure : (-1.02738 0.418768 -1.10083)
        Viscous  : (0.00206416 6.21431 0.00206895)
    writing force and moment files.

Time = 38

smoothSolver:  Solving for Ux, Initial residual = 0.000393072, Final residual = 3.81577e-05, No Iterations 4
smoothSolver:  Solving for Uy, Initial residual = 0.00989246, Final residual = 0.000796895, No Iterations 5
GAMG:  Solving for p, Initial residual = 0.00195401, Final residual = 1.90667e-05, No Iterations 19
GAMG:  Solving for p, Initial residual = 8.84758e-05, Final residual = 8.53674e-07, No Iterations 28
time step continuity errors : sum local = 1.86757e-07, global = -5.65187e-08, cumulative = -2.6185e-05
smoothSolver:  Solving for nuTilda, Initial residual = 0.0004842, Final residual = 4.34816e-05, No Iterations 11
ExecutionTime = 4.65 s  ClockTime = 5 s

forceCoeffs forceCoeffs write:
    Coefficient	Total	Pressure	Viscous	Internal
    Cd:	21.1275	1.21903	19.9084	0
    Cd(f):	9.01861	-0.939249	9.95786	0
    Cd(r):	12.1088	2.15828	9.95056	0
    Cl:	3.09024	3.09753	-0.00729469	0
    Cl(f):	3.45264	3.45989	-0.00725016	0
    Cl(r):	-0.362404	-0.362359	-4.45281e-05	0
    CmPitch:	1.90752	1.91112	-0.00360282	0
    CmRoll:	-1.54512	-1.54877	0.00364735	0
    CmYaw:	10.5637	0.609517	9.95421	0
    Cs:	4.39928e-19	2.61914e-20	4.13737e-19	0
    Cs(f):	10.5637	0.609517	9.95421	0
    Cs(r):	-10.5637	-0.609517	-9.95421	0

    writing force and moment coefficient files.

forces forces write:
    Sum of forces
        Total    : (12.9406 1.89277 -2.69456e-19)
        Pressure : (0.746658 1.89724 -1.60422e-20)
        Viscous  : (12.1939 -0.004468 -2.53414e-19)
    Sum of moments
        Total    : (-0.946385 6.47028 -1.16836)
        Pressure : (-0.948619 0.373329 -1.17056)
        Viscous  : (0.002234 6.09695 0.00220673)
    writing force and moment files.

Time = 39

smoothSolver:  Solving for Ux, Initial residual = 0.000381863, Final residual = 3.70703e-05, No Iterations 4
smoothSolver:  Solving for Uy, Initial residual = 0.00974608, Final residual = 0.000785257, No Iterations 5
GAMG:  Solving for p, Initial residual = 0.00189094, Final residual = 1.64795e-05, No Iterations 19
GAMG:  Solving for p, Initial residual = 8.28824e-05, Final residual = 8.078e-07, No Iterations 28
time step continuity errors : sum local = 1.75722e-07, global = -5.33802e-08, cumulative = -2.62384e-05
smoothSolver:  Solving for nuTilda, Initial residual = 0.000462674, Final residual = 4.12714e-05, No Iterations 11
ExecutionTime = 4.76 s  ClockTime = 5 s

forceCoeffs forceCoeffs write:
    Coefficient	Total	Pressure	Viscous	Internal
    Cd:	20.6453	1.0936	19.5517	0
    Cd(f):	8.8849	-0.894899	9.7798	0
    Cd(r):	11.7604	1.9885	9.77193	0
    Cl:	2.87553	2.8834	-0.00786898	0
    Cl(f):	3.41473	3.42251	-0.00777904	0
    Cl(r):	-0.539202	-0.539112	-8.99405e-05	0
    CmPitch:	1.97697	1.98081	-0.00384455	0
    CmRoll:	-1.43777	-1.4417	0.00393449	0
    CmYaw:	10.3227	0.546802	9.77586	0
    Cs:	4.39906e-19	2.61334e-20	4.13772e-19	0
    Cs(f):	10.3227	0.546802	9.77586	0
    Cs(r):	-10.3227	-0.546802	-9.77586	0

    writing force and moment coefficient files.

forces forces write:
    Sum of forces
        Total    : (12.6453 1.76126 -2.69442e-19)
        Pressure : (0.669832 1.76608 -1.60067e-20)
        Viscous  : (11.9754 -0.00481975 -2.53436e-19)
    Sum of moments
        Total    : (-0.880632 6.32263 -1.21089)
        Pressure : (-0.883042 0.334916 -1.21325)
        Viscous  : (0.00240987 5.98772 0.00235479)
    writing force and moment files.

Time = 40

smoothSolver:  Solving for Ux, Initial residual = 0.000371546, Final residual = 3.6013e-05, No Iterations 4
smoothSolver:  Solving for Uy, Initial residual = 0.00959364, Final residual = 0.000773314, No Iterations 5
GAMG:  Solving for p, Initial residual = 0.00182962, Final residual = 1.71537e-05, No Iterations 17
GAMG:  Solving for p, Initial residual = 7.9543e-05, Final residual = 7.42879e-07, No Iterations 30
time step continuity errors : sum local = 1.61002e-07, global = -5.10839e-08, cumulative = -2.62894e-05
smoothSolver:  Solving for nuTilda, Initial residual = 0.000441401, Final residual = 3.90806e-05, No Iterations 11
ExecutionTime = 4.92 s  ClockTime = 5 s

forceCoeffs forceCoeffs write:
    Coefficient	Total	Pressure	Viscous	Internal
    Cd:	20.2117	0.99085	19.2209	0
    Cd(f):	8.75842	-0.85623	9.61465	0
    Cd(r):	11.4533	1.84708	9.6062	0
    Cl:	2.69486	2.70331	-0.00844807	0
    Cl(f):	3.35622	3.36454	-0.00831712	0
    Cl(r):	-0.661363	-0.661232	-0.000130949	0
    CmPitch:	2.00879	2.01289	-0.00409309	0
    CmRoll:	-1.34743	-1.35165	0.00422404	0
    CmYaw:	10.1059	0.495425	9.61043	0
    Cs:	4.39823e-19	2.61485e-20	4.13675e-19	0
    Cs(f):	10.1059	0.495425	9.61043	0
    Cs(r):	-10.1059	-0.495425	-9.61043	0

    writing force and moment coefficient files.

forces forces write:
    Sum of forces
        Total    : (12.3797 1.6506 -2.69392e-19)
        Pressure : (0.606896 1.65578 -1.6016e-20)
        Viscous  : (11.7728 -0.00517444 -2.53376e-19)
    Sum of moments
        Total    : (-0.825301 6.18983 -1.23039)
        Pressure : (-0.827888 0.303448 -1.23289)
        Viscous  : (0.00258722 5.88639 0.00250702)
    writing force and moment files.

Time = 41

smoothSolver:  Solving for Ux, Initial residual = 0.000362221, Final residual = 3.49945e-05, No Iterations 4
smoothSolver:  Solving for Uy, Initial residual = 0.00943472, Final residual = 0.000761098, No Iterations 5
GAMG:  Solving for p, Initial residual = 0.00176317, Final residual = 1.38238e-05, No Iterations 17
GAMG:  Solving for p, Initial residual = 7.40158e-05, Final residual = 6.65914e-07, No Iterations 30
time step continuity errors : sum local = 1.43993e-07, global = -4.63349e-08, cumulative = -2.63358e-05
smoothSolver:  Solving for nuTilda, Initial residual = 0.000420467, Final residual = 3.6916e-05, No Iterations 11
ExecutionTime = 5.03 s  ClockTime = 5 s

forceCoeffs forceCoeffs write:
    Coefficient	Total	Pressure	Viscous	Internal
    Cd:	19.8252	0.910054	18.9151	0
    Cd(f):	8.6384	-0.823679	9.46208	0
    Cd(r):	11.1868	1.73373	9.45306	0
    Cl:	2.54839	2.55741	-0.00901829	0
    Cl(f):	3.28018	3.28902	-0.00884232	0
    Cl(r):	-0.731785	-0.731609	-0.000175974	0
    CmPitch:	2.00598	2.01031	-0.00433317	0
    CmRoll:	-1.2742	-1.27871	0.00450915	0
    CmYaw:	9.9126	0.455027	9.45757	0
    Cs:	4.39722e-19	2.61958e-20	4.13527e-19	0
    Cs(f):	9.9126	0.455027	9.45757	0
    Cs(r):	-9.9126	-0.455027	-9.45757	0

    writing force and moment coefficient files.

forces forces write:
    Sum of forces
        Total    : (12.1429 1.56089 -2.6933e-19)
        Pressure : (0.557408 1.56642 -1.60449e-20)
        Viscous  : (11.5855 -0.00552371 -2.53285e-19)
    Sum of moments
        Total    : (-0.780446 6.07147 -1.22866)
        Pressure : (-0.783208 0.278704 -1.23132)
        Viscous  : (0.00276185 5.79276 0.00265407)
    writing force and moment files.

Time = 42

smoothSolver:  Solving for Ux, Initial residual = 0.00035414, Final residual = 3.40203e-05, No Iterations 4
smoothSolver:  Solving for Uy, Initial residual = 0.0092674, Final residual = 0.000748521, No Iterations 5
GAMG:  Solving for p, Initial residual = 0.00169458, Final residual = 1.49571e-05, No Iterations 15
GAMG:  Solving for p, Initial residual = 7.20546e-05, Final residual = 6.33693e-07, No Iterations 30
time step continuity errors : sum local = 1.36951e-07, global = -4.36068e-08, cumulative = -2.63794e-05
smoothSolver:  Solving for nuTilda, Initial residual = 0.000400006, Final residual = 3.48161e-05, No Iterations 11
ExecutionTime = 5.14 s  ClockTime = 5 s

forceCoeffs forceCoeffs write:
    Coefficient	Total	Pressure	Viscous	Internal
    Cd:	19.4842	0.850358	18.6338	0
    Cd(f):	8.52687	-0.794835	9.32171	0
    Cd(r):	10.9573	1.64519	9.31214	0
    Cl:	2.43046	2.44003	-0.00956618	0
    Cl(f):	3.19014	3.19947	-0.00933283	0
    Cl(r):	-0.759678	-0.759445	-0.000233348	0
    CmPitch:	1.97491	1.97946	-0.00454974	0
    CmRoll:	-1.21523	-1.22001	0.00478309	0
    CmYaw:	9.7421	0.425179	9.31692	0
    Cs:	4.39609e-19	2.62907e-20	4.13318e-19	0
    Cs(f):	9.7421	0.425179	9.31692	0
    Cs(r):	-9.7421	-0.425179	-9.31692	0

    writing force and moment coefficient files.

forces forces write:
    Sum of forces
        Total    : (11.9341 1.48866 -2.69261e-19)
        Pressure : (0.520844 1.49452 -1.6103e-20)
        Viscous  : (11.4132 -0.00585928 -2.53158e-19)
    Sum of moments
        Total    : (-0.744329 5.96704 -1.20963)
        Pressure : (-0.747258 0.260422 -1.21242)
        Viscous  : (0.00292964 5.70662 0.00278672)
    writing force and moment files.

Time = 43

smoothSolver:  Solving for Ux, Initial residual = 0.000347117, Final residual = 3.30862e-05, No Iterations 4
smoothSolver:  Solving for Uy, Initial residual = 0.00909057, Final residual = 0.000735575, No Iterations 5
GAMG:  Solving for p, Initial residual = 0.00164756, Final residual = 1.4432e-05, No Iterations 15
GAMG:  Solving for p, Initial residual = 6.96849e-05, Final residual = 6.49975e-07, No Iterations 28
time step continuity errors : sum local = 1.40586e-07, global = -4.76333e-08, cumulative = -2.6427e-05
smoothSolver:  Solving for nuTilda, Initial residual = 0.000380344, Final residual = 3.28005e-05, No Iterations 11
ExecutionTime = 5.24 s  ClockTime = 5 s

forceCoeffs forceCoeffs write:
    Coefficient	Total	Pressure	Viscous	Internal
    Cd:	19.1868	0.810661	18.3762	0
    Cd(f):	8.42586	-0.76727	9.19313	0
    Cd(r):	10.761	1.57793	9.18305	0
    Cl:	2.33512	2.3452	-0.0100813	0
    Cl(f):	3.08872	3.09849	-0.00976904	0
    Cl(r):	-0.753601	-0.753289	-0.000312301	0
    CmPitch:	1.92116	1.92589	-0.00472837	0
    CmRoll:	-1.16756	-1.1726	0.00504067	0
    CmYaw:	9.59342	0.405331	9.18809	0
    Cs:	4.39475e-19	2.64315e-20	4.13043e-19	0
    Cs(f):	9.59342	0.405331	9.18809	0
    Cs(r):	-9.59342	-0.405331	-9.18809	0

    writing force and moment coefficient files.

forces forces write:
    Sum of forces
        Total    : (11.7519 1.43026 -2.69178e-19)
        Pressure : (0.49653 1.43644 -1.61893e-20)
        Viscous  : (11.2554 -0.00617482 -2.52989e-19)
    Sum of moments
        Total    : (-0.715131 5.87597 -1.17671)
        Pressure : (-0.718218 0.248265 -1.17961)
        Viscous  : (0.00308741 5.62771 0.00289613)
    writing force and moment files.

Time = 44

smoothSolver:  Solving for Ux, Initial residual = 0.00034119, Final residual = 3.22005e-05, No Iterations 4
smoothSolver:  Solving for Uy, Initial residual = 0.0089057, Final residual = 0.000722214, No Iterations 5
GAMG:  Solving for p, Initial residual = 0.00162166, Final residual = 1.61587e-05, No Iterations 15
GAMG:  Solving for p, Initial residual = 6.94486e-05, Final residual = 6.74076e-07, No Iterations 26
time step continuity errors : sum local = 1.46143e-07, global = -5.70462e-08, cumulative = -2.64841e-05
smoothSolver:  Solving for nuTilda, Initial residual = 0.00036135, Final residual = 3.08958e-05, No Iterations 11
ExecutionTime = 5.35 s  ClockTime = 5 s

forceCoeffs forceCoeffs write:
    Coefficient	Total	Pressure	Viscous	Internal
    Cd:	18.9302	0.788945	18.1412	0
    Cd(f):	8.33692	-0.73897	9.07589	0
    Cd(r):	10.5932	1.52791	9.06533	0
    Cl:	2.25633	2.26688	-0.010559	0
    Cl(f):	2.97927	2.9894	-0.0101348	0
    Cl(r):	-0.722941	-0.722517	-0.000424253	0
    CmPitch:	1.8511	1.85596	-0.00485527	0
    CmRoll:	-1.12816	-1.13344	0.00527952	0
    CmYaw:	9.46508	0.394473	9.07061	0
    Cs:	4.39329e-19	2.65856e-20	4.12744e-19	0
    Cs(f):	9.46508	0.394473	9.07061	0
    Cs(r):	-9.46508	-0.394473	-9.07061	0

    writing force and moment coefficient files.

forces forces write:
    Sum of forces
        Total    : (11.5947 1.382 -2.69089e-19)
        Pressure : (0.483229 1.38847 -1.62837e-20)
        Viscous  : (11.1115 -0.00646741 -2.52806e-19)
    Sum of moments
        Total    : (-0.691 5.79736 -1.1338)
        Pressure : (-0.694233 0.241614 -1.13678)
        Viscous  : (0.00323371 5.55575 0.00297385)
    writing force and moment files.

Time = 45

smoothSolver:  Solving for Ux, Initial residual = 0.000336282, Final residual = 3.13601e-05, No Iterations 4
smoothSolver:  Solving for Uy, Initial residual = 0.00871013, Final residual = 0.000708238, No Iterations 5
GAMG:  Solving for p, Initial residual = 0.00157267, Final residual = 1.37307e-05, No Iterations 16
GAMG:  Solving for p, Initial residual = 6.69447e-05, Final residual = 6.65356e-07, No Iterations 26
time step continuity errors : sum local = 1.4482e-07, global = 6.30155e-08, cumulative = -2.64211e-05
smoothSolver:  Solving for nuTilda, Initial residual = 0.000343323, Final residual = 2.91194e-05, No Iterations 11
ExecutionTime = 5.45 s  ClockTime = 5 s

forceCoeffs forceCoeffs write:
    Coefficient	Total	Pressure	Viscous	Internal
    Cd:	18.7121	0.784205	17.9279	0
    Cd(f):	8.26228	-0.707185	8.96947	0
    Cd(r):	10.4499	1.49139	8.95847	0
    Cl:	2.18758	2.19857	-0.0109986	0
    Cl(f):	2.86527	2.87569	-0.010419	0
    Cl(r):	-0.677691	-0.677112	-0.000579628	0
    CmPitch:	1.77148	1.7764	-0.00491969	0
    CmRoll:	-1.09379	-1.09929	0.00549932	0
    CmYaw:	9.35607	0.392103	8.96397	0
    Cs:	4.39165e-19	2.67112e-20	4.12454e-19	0
    Cs(f):	9.35607	0.392103	8.96397	0
    Cs(r):	-9.35607	-0.392103	-8.96397	0

    writing force and moment coefficient files.

forces forces write:
    Sum of forces
        Total    : (11.4612 1.33989 -2.68989e-19)
        Pressure : (0.480326 1.34663 -1.63606e-20)
        Viscous  : (10.9809 -0.00673666 -2.52628e-19)
    Sum of moments
        Total    : (-0.669945 5.73059 -1.08503)
        Pressure : (-0.673313 0.240163 -1.08804)
        Viscous  : (0.00336833 5.49043 0.00301331)
    writing force and moment files.

Time = 46

smoothSolver:  Solving for Ux, Initial residual = 0.000332075, Final residual = 3.05642e-05, No Iterations 4
smoothSolver:  Solving for Uy, Initial residual = 0.00850492, Final residual = 0.000693661, No Iterations 5
GAMG:  Solving for p, Initial residual = 0.00151392, Final residual = 1.36656e-05, No Iterations 16
GAMG:  Solving for p, Initial residual = 6.6561e-05, Final residual = 6.54143e-07, No Iterations 26
time step continuity errors : sum local = 1.43176e-07, global = 6.33662e-08, cumulative = -2.63577e-05
smoothSolver:  Solving for nuTilda, Initial residual = 0.000326491, Final residual = 2.74899e-05, No Iterations 11
ExecutionTime = 5.56 s  ClockTime = 6 s

forceCoeffs forceCoeffs write:
    Coefficient	Total	Pressure	Viscous	Internal
    Cd:	18.5302	0.794973	17.7352	0
    Cd(f):	8.20028	-0.673014	8.87329	0
    Cd(r):	10.3299	1.46799	8.86189	0
    Cl:	2.1296	2.141	-0.0114018	0
    Cl(f):	2.74948	2.76009	-0.0106166	0
    Cl(r):	-0.619877	-0.619091	-0.000785225	0
    CmPitch:	1.68468	1.68959	-0.0049157	0
    CmRoll:	-1.0648	-1.0705	0.00570092	0
    CmYaw:	9.26508	0.397487	8.86759	0
    Cs:	4.38987e-19	2.68151e-20	4.12172e-19	0
    Cs(f):	9.26508	0.397487	8.86759	0
[...]
GAMG:  Solving for p, Initial residual = 1.61841e-05, Final residual = 1.42752e-07, No Iterations 25
time step continuity errors : sum local = 3.74796e-08, global = 1.26296e-08, cumulative = -2.69475e-05
smoothSolver:  Solving for nuTilda, Initial residual = 0.000176443, Final residual = 1.53552e-05, No Iterations 10
ExecutionTime = 10.38 s  ClockTime = 10 s

forceCoeffs forceCoeffs write:
    Coefficient	Total	Pressure	Viscous	Internal
    Cd:	18.1335	2.0557	16.0778	0
    Cd(f):	7.11951	-0.924779	8.04428	0
    Cd(r):	11.014	2.98048	8.03354	0
    Cl:	3.89451	3.90526	-0.0107414	0
    Cl(f):	0.256693	0.263453	-0.00676035	0
    Cl(r):	3.63782	3.6418	-0.00398109	0
    CmPitch:	-1.69056	-1.68917	-0.00138963	0
    CmRoll:	-1.94726	-1.95263	0.00537072	0
    CmYaw:	9.06676	1.02785	8.03891	0
    Cs:	4.44723e-19	3.4635e-20	4.10088e-19	0
    Cs(f):	9.06676	1.02785	8.03891	0
    Cs(r):	-9.06676	-1.02785	-8.03891	0

    writing force and moment coefficient files.

forces forces write:
    Sum of forces
        Total    : (11.1068 2.38539 -2.72393e-19)
        Pressure : (1.25911 2.39197 -2.1214e-20)
        Viscous  : (9.84767 -0.00657913 -2.51179e-19)
    Sum of moments
        Total    : (-1.19269 5.55339 1.03547)
        Pressure : (-1.19598 0.629557 1.03462)
        Viscous  : (0.00328957 4.92383 0.000851148)
    writing force and moment files.

Time = 90

smoothSolver:  Solving for Ux, Initial residual = 8.03058e-05, Final residual = 5.75948e-06, No Iterations 4
smoothSolver:  Solving for Uy, Initial residual = 0.00176593, Final residual = 0.000167615, No Iterations 4
GAMG:  Solving for p, Initial residual = 0.00031889, Final residual = 2.63613e-06, No Iterations 20
GAMG:  Solving for p, Initial residual = 1.53194e-05, Final residual = 1.36314e-07, No Iterations 25
time step continuity errors : sum local = 3.57e-08, global = 1.13691e-08, cumulative = -2.69361e-05
smoothSolver:  Solving for nuTilda, Initial residual = 0.000192702, Final residual = 1.73255e-05, No Iterations 9
ExecutionTime = 10.5 s  ClockTime = 11 s

forceCoeffs forceCoeffs write:
    Coefficient	Total	Pressure	Viscous	Internal
    Cd:	18.1042	2.04019	16.064	0
    Cd(f):	7.12307	-0.914222	8.03729	0
    Cd(r):	10.9811	2.95442	8.02673	0
    Cl:	3.85807	3.86864	-0.0105654	0
    Cl(f):	0.263423	0.270195	-0.00677288	0
    Cl(r):	3.59465	3.59844	-0.00379252	0
    CmPitch:	-1.66561	-1.66412	-0.00149018	0
    CmRoll:	-1.92904	-1.93432	0.0052827	0
    CmYaw:	9.05211	1.0201	8.03201	0
    Cs:	4.44686e-19	3.45839e-20	4.10102e-19	0
    Cs(f):	9.05211	1.0201	8.03201	0
    Cs(r):	-9.05211	-1.0201	-8.03201	0

    writing force and moment coefficient files.

forces forces write:
    Sum of forces
        Total    : (11.0888 2.36307 -2.7237e-19)
        Pressure : (1.24962 2.36954 -2.11826e-20)
        Viscous  : (9.83921 -0.0064713 -2.51188e-19)
    Sum of moments
        Total    : (-1.18153 5.54442 1.02019)
        Pressure : (-1.18477 0.624809 1.01928)
        Viscous  : (0.00323565 4.91961 0.000912736)
    writing force and moment files.

Time = 91

smoothSolver:  Solving for Ux, Initial residual = 7.57977e-05, Final residual = 5.49297e-06, No Iterations 4
smoothSolver:  Solving for Uy, Initial residual = 0.00166362, Final residual = 0.000159535, No Iterations 4
GAMG:  Solving for p, Initial residual = 0.000301654, Final residual = 2.77119e-06, No Iterations 20
GAMG:  Solving for p, Initial residual = 1.46218e-05, Final residual = 1.27804e-07, No Iterations 25
time step continuity errors : sum local = 3.33893e-08, global = 1.10693e-08, cumulative = -2.6925e-05
smoothSolver:  Solving for nuTilda, Initial residual = 0.000170763, Final residual = 1.48379e-05, No Iterations 10
ExecutionTime = 10.6 s  ClockTime = 11 s

forceCoeffs forceCoeffs write:
    Coefficient	Total	Pressure	Viscous	Internal
    Cd:	18.0732	2.02493	16.0483	0
    Cd(f):	7.12704	-0.902287	8.02933	0
    Cd(r):	10.9462	2.92721	8.01895	0
    Cl:	3.81913	3.8295	-0.010374	0
    Cl(f):	0.271311	0.278084	-0.00677286	0
    Cl(r):	3.54782	3.55142	-0.00360114	0
    CmPitch:	-1.63825	-1.63667	-0.00158586	0
    CmRoll:	-1.90956	-1.91475	0.005187	0
    CmYaw:	9.0366	1.01246	8.02414	0
    Cs:	4.44654e-19	3.45264e-20	4.10128e-19	0
    Cs(f):	9.0366	1.01246	8.02414	0
    Cs(r):	-9.0366	-1.01246	-8.02414	0

    writing force and moment coefficient files.

forces forces write:
    Sum of forces
        Total    : (11.0698 2.33922 -2.72351e-19)
        Pressure : (1.24027 2.34557 -2.11474e-20)
        Viscous  : (9.82957 -0.00635407 -2.51203e-19)
    Sum of moments
        Total    : (-1.16961 5.53492 1.00343)
        Pressure : (-1.17278 0.620134 1.00246)
        Viscous  : (0.00317704 4.91478 0.000971337)
    writing force and moment files.

Time = 92

smoothSolver:  Solving for Ux, Initial residual = 7.21169e-05, Final residual = 5.27493e-06, No Iterations 4
smoothSolver:  Solving for Uy, Initial residual = 0.00156775, Final residual = 0.00015199, No Iterations 4
GAMG:  Solving for p, Initial residual = 0.00027653, Final residual = 2.71794e-06, No Iterations 20
GAMG:  Solving for p, Initial residual = 1.37999e-05, Final residual = 1.2595e-07, No Iterations 25
time step continuity errors : sum local = 3.28266e-08, global = 1.10882e-08, cumulative = -2.69139e-05
smoothSolver:  Solving for nuTilda, Initial residual = 0.000186758, Final residual = 1.67795e-05, No Iterations 9
ExecutionTime = 10.71 s  ClockTime = 11 s

forceCoeffs forceCoeffs write:
    Coefficient	Total	Pressure	Viscous	Internal
    Cd:	18.0449	2.01096	16.0339	0
    Cd(f):	7.1336	-0.888473	8.02207	0
    Cd(r):	10.9113	2.89943	8.01187	0
    Cl:	3.7777	3.78791	-0.0102012	0
    Cl(f):	0.280059	0.286845	-0.00678559	0
    Cl(r):	3.49765	3.50106	-0.00341564	0
    CmPitch:	-1.60879	-1.60711	-0.00168498	0
    CmRoll:	-1.88885	-1.89395	0.00510061	0
    CmYaw:	9.02245	1.00548	8.01697	0
    Cs:	4.44599e-19	3.44718e-20	4.10127e-19	0
    Cs(f):	9.02245	1.00548	8.01697	0
    Cs(r):	-9.02245	-1.00548	-8.01697	0

    writing force and moment coefficient files.

forces forces write:
    Sum of forces
        Total    : (11.0525 2.31384 -2.72317e-19)
        Pressure : (1.23171 2.32009 -2.1114e-20)
        Viscous  : (9.82079 -0.00624825 -2.51203e-19)
    Sum of moments
        Total    : (-1.15692 5.52625 0.985386)
        Pressure : (-1.16005 0.615857 0.984354)
        Viscous  : (0.00312413 4.91039 0.00103205)
    writing force and moment files.

Time = 93

smoothSolver:  Solving for Ux, Initial residual = 6.80652e-05, Final residual = 5.03856e-06, No Iterations 4
smoothSolver:  Solving for Uy, Initial residual = 0.00147731, Final residual = 0.000144978, No Iterations 4
GAMG:  Solving for p, Initial residual = 0.000251659, Final residual = 1.94443e-06, No Iterations 22
GAMG:  Solving for p, Initial residual = 1.2716e-05, Final residual = 1.0518e-07, No Iterations 27
time step continuity errors : sum local = 2.7349e-08, global = 8.87181e-09, cumulative = -2.69051e-05
smoothSolver:  Solving for nuTilda, Initial residual = 0.000165628, Final residual = 1.43575e-05, No Iterations 10
ExecutionTime = 10.82 s  ClockTime = 11 s

forceCoeffs forceCoeffs write:
    Coefficient	Total	Pressure	Viscous	Internal
    Cd:	18.0149	1.99722	16.0177	0
    Cd(f):	7.14042	-0.873436	8.01385	0
    Cd(r):	10.8745	2.87065	8.00384	0
    Cl:	3.73408	3.74409	-0.0100119	0
    Cl(f):	0.289793	0.296576	-0.00678357	0
    Cl(r):	3.44428	3.44751	-0.00322837	0
    CmPitch:	-1.57725	-1.57547	-0.0017776	0
    CmRoll:	-1.86704	-1.87204	0.00500597	0
    CmYaw:	9.00745	0.998608	8.00885	0
    Cs:	4.4455e-19	3.4413e-20	4.10137e-19	0
    Cs(f):	9.00745	0.998608	8.00885	0
    Cs(r):	-9.00745	-0.998608	-8.00885	0

    writing force and moment coefficient files.

forces forces write:
    Sum of forces
        Total    : (11.0341 2.28712 -2.72287e-19)
        Pressure : (1.2233 2.29325 -2.1078e-20)
        Viscous  : (9.81084 -0.00613232 -2.51209e-19)
    Sum of moments
        Total    : (-1.14356 5.51707 0.966063)
        Pressure : (-1.14663 0.611648 0.964974)
        Viscous  : (0.00306616 4.90542 0.00108878)
    writing force and moment files.

Time = 94

smoothSolver:  Solving for Ux, Initial residual = 6.48306e-05, Final residual = 4.84824e-06, No Iterations 4
smoothSolver:  Solving for Uy, Initial residual = 0.00139144, Final residual = 0.000138345, No Iterations 4
GAMG:  Solving for p, Initial residual = 0.000232337, Final residual = 1.83062e-06, No Iterations 22
GAMG:  Solving for p, Initial residual = 1.20027e-05, Final residual = 1.03667e-07, No Iterations 27
time step continuity errors : sum local = 2.68964e-08, global = 8.79456e-09, cumulative = -2.68963e-05
smoothSolver:  Solving for nuTilda, Initial residual = 0.000181054, Final residual = 1.62653e-05, No Iterations 9
ExecutionTime = 10.94 s  ClockTime = 11 s

forceCoeffs forceCoeffs write:
    Coefficient	Total	Pressure	Viscous	Internal
    Cd:	17.9876	1.98473	16.0029	0
    Cd(f):	7.14949	-0.856869	8.00636	0
    Cd(r):	10.8381	2.8416	7.99651	0
    Cl:	3.68863	3.69847	-0.00984336	0
    Cl(f):	0.300126	0.306922	-0.00679517	0
    Cl(r):	3.3885	3.39155	-0.00304819	0
    CmPitch:	-1.54419	-1.54231	-0.00187349	0
    CmRoll:	-1.84431	-1.84924	0.00492168	0
    CmYaw:	8.9938	0.992366	8.00144	0
    Cs:	4.44481e-19	3.43596e-20	4.10122e-19	0
    Cs(f):	8.9938	0.992366	8.00144	0
    Cs(r):	-8.9938	-0.992366	-8.00144	0

    writing force and moment coefficient files.

forces forces write:
    Sum of forces
        Total    : (11.0174 2.25928 -2.72245e-19)
        Pressure : (1.21565 2.26531 -2.10453e-20)
        Viscous  : (9.80176 -0.00602906 -2.51199e-19)
    Sum of moments
        Total    : (-1.12964 5.5087 0.945815)
        Pressure : (-1.13266 0.607824 0.944667)
        Viscous  : (0.00301453 4.90088 0.00114751)
    writing force and moment files.

Time = 95

smoothSolver:  Solving for Ux, Initial residual = 6.1191e-05, Final residual = 4.63918e-06, No Iterations 4
smoothSolver:  Solving for Uy, Initial residual = 0.00131058, Final residual = 8.86868e-05, No Iterations 5
GAMG:  Solving for p, Initial residual = 0.00024017, Final residual = 2.12338e-06, No Iterations 22
GAMG:  Solving for p, Initial residual = 1.29658e-05, Final residual = 1.09218e-07, No Iterations 27
time step continuity errors : sum local = 2.82544e-08, global = 9.12872e-09, cumulative = -2.68871e-05
smoothSolver:  Solving for nuTilda, Initial residual = 0.000160533, Final residual = 1.39125e-05, No Iterations 10
ExecutionTime = 11.05 s  ClockTime = 11 s

forceCoeffs forceCoeffs write:
    Coefficient	Total	Pressure	Viscous	Internal
    Cd:	17.954	1.96783	15.9862	0
    Cd(f):	7.13803	-0.859868	7.9979	0
    Cd(r):	10.816	2.8277	7.98826	0
    Cl:	3.67793	3.68757	-0.00964221	0
    Cl(f):	0.305157	0.311946	-0.00678907	0
    Cl(r):	3.37277	3.37563	-0.00285314	0
    CmPitch:	-1.53381	-1.53184	-0.00196797	0
    CmRoll:	-1.83896	-1.84379	0.0048211	0
    CmYaw:	8.977	0.983917	7.99308	0
    Cs:	4.44458e-19	3.43304e-20	4.10127e-19	0
    Cs(f):	8.977	0.983917	7.99308	0
    Cs(r):	-8.977	-0.983917	-7.99308	0

    writing force and moment coefficient files.

forces forces write:
    Sum of forces
        Total    : (10.9968 2.25273 -2.7223e-19)
        Pressure : (1.2053 2.25864 -2.10274e-20)
        Viscous  : (9.79152 -0.00590585 -2.51203e-19)
    Sum of moments
        Total    : (-1.12637 5.49841 0.939457)
        Pressure : (-1.12932 0.602649 0.938252)
        Viscous  : (0.00295293 4.89576 0.00120538)
    writing force and moment files.

Time = 96

smoothSolver:  Solving for Ux, Initial residual = 5.82601e-05, Final residual = 4.47366e-06, No Iterations 4
smoothSolver:  Solving for Uy, Initial residual = 0.00121987, Final residual = 8.35701e-05, No Iterations 5
GAMG:  Solving for p, Initial residual = 0.000221681, Final residual = 1.67306e-06, No Iterations 22
GAMG:  Solving for p, Initial residual = 1.07521e-05, Final residual = 1.01609e-07, No Iterations 27
time step continuity errors : sum local = 2.62309e-08, global = 8.87042e-09, cumulative = -2.68783e-05
smoothSolver:  Solving for nuTilda, Initial residual = 0.000175545, Final residual = 1.57807e-05, No Iterations 9
ExecutionTime = 11.17 s  ClockTime = 11 s

forceCoeffs forceCoeffs write:
    Coefficient	Total	Pressure	Viscous	Internal
    Cd:	17.9272	1.95634	15.9709	0
    Cd(f):	7.14805	-0.842145	7.99019	0
    Cd(r):	10.7792	2.79848	7.98069	0
    Cl:	3.63112	3.64063	-0.00950366	0
    Cl(f):	0.317241	0.32404	-0.00679902	0
    Cl(r):	3.31388	3.31659	-0.00270464	0
    CmPitch:	-1.49832	-1.49627	-0.00204719	0
    CmRoll:	-1.81556	-1.82031	0.00475183	0
    CmYaw:	8.96361	0.978169	7.98544	0
    Cs:	4.44374e-19	3.42787e-20	4.10096e-19	0
    Cs(f):	8.96361	0.978169	7.98544	0
    Cs(r):	-8.96361	-0.978169	-7.98544	0

    writing force and moment coefficient files.

forces forces write:
    Sum of forces
        Total    : (10.9804 2.22406 -2.72179e-19)
        Pressure : (1.19826 2.22988 -2.09957e-20)
        Viscous  : (9.78216 -0.00582099 -2.51184e-19)
    Sum of moments
        Total    : (-1.11203 5.49021 0.917722)
        Pressure : (-1.11494 0.599128 0.916468)
        Viscous  : (0.0029105 4.89108 0.00125391)
    writing force and moment files.

Time = 97

smoothSolver:  Solving for Ux, Initial residual = 5.50258e-05, Final residual = 4.2889e-06, No Iterations 4
smoothSolver:  Solving for Uy, Initial residual = 0.00114754, Final residual = 7.96843e-05, No Iterations 5
GAMG:  Solving for p, Initial residual = 0.000216319, Final residual = 2.11629e-06, No Iterations 20
GAMG:  Solving for p, Initial residual = 1.03829e-05, Final residual = 9.64179e-08, No Iterations 27
time step continuity errors : sum local = 2.48446e-08, global = 9.19234e-09, cumulative = -2.68691e-05
smoothSolver:  Solving for nuTilda, Initial residual = 0.000155598, Final residual = 1.34986e-05, No Iterations 10
ExecutionTime = 11.28 s  ClockTime = 11 s

forceCoeffs forceCoeffs write:
    Coefficient	Total	Pressure	Viscous	Internal
    Cd:	17.8997	1.94586	15.9538	0
    Cd(f):	7.16107	-0.820482	7.98155	0
    Cd(r):	10.7386	2.76634	7.97225	0
    Cl:	3.57752	3.58682	-0.00930295	0
    Cl(f):	0.330875	0.337664	-0.00678939	0
    Cl(r):	3.24665	3.24916	-0.00251356	0
    CmPitch:	-1.45789	-1.45575	-0.00213791	0
    CmRoll:	-1.78876	-1.79341	0.00465148	0
    CmYaw:	8.94983	0.97293	7.9769	0
    Cs:	4.44299e-19	3.42201e-20	4.10079e-19	0
    Cs(f):	8.94983	0.97293	7.9769	0
    Cs(r):	-8.94983	-0.97293	-7.9769	0

    writing force and moment coefficient files.

forces forces write:
    Sum of forces
        Total    : (10.9635 2.19123 -2.72133e-19)
        Pressure : (1.19184 2.19693 -2.09598e-20)
        Viscous  : (9.7717 -0.00569806 -2.51173e-19)
    Sum of moments
        Total    : (-1.09562 5.48177 0.892955)
        Pressure : (-1.09847 0.59592 0.891646)
        Viscous  : (0.00284903 4.88585 0.00130947)
    writing force and moment files.

Time = 98

smoothSolver:  Solving for Ux, Initial residual = 5.25055e-05, Final residual = 4.14188e-06, No Iterations 4
smoothSolver:  Solving for Uy, Initial residual = 0.00108022, Final residual = 7.61007e-05, No Iterations 5
GAMG:  Solving for p, Initial residual = 0.000210681, Final residual = 1.60487e-06, No Iterations 22
GAMG:  Solving for p, Initial residual = 9.65409e-06, Final residual = 9.41457e-08, No Iterations 27
time step continuity errors : sum local = 2.42152e-08, global = 8.45054e-09, cumulative = -2.68606e-05
smoothSolver:  Solving for nuTilda, Initial residual = 0.000170315, Final residual = 1.5327e-05, No Iterations 9
ExecutionTime = 11.4 s  ClockTime = 11 s

forceCoeffs forceCoeffs write:
    Coefficient	Total	Pressure	Viscous	Internal
    Cd:	17.8747	1.93661	15.9381	0
    Cd(f):	7.17541	-0.798238	7.97365	0
    Cd(r):	10.6993	2.73485	7.96448	0
    Cl:	3.52392	3.53309	-0.00916454	0
    Cl(f):	0.344445	0.35124	-0.00679449	0
    Cl(r):	3.17948	3.18185	-0.00237005	0
    CmPitch:	-1.41752	-1.4153	-0.00221222	0
    CmRoll:	-1.76196	-1.76654	0.00458227	0
    CmYaw:	8.93737	0.968304	7.96906	0
    Cs:	4.44206e-19	3.41707e-20	4.10035e-19	0
    Cs(f):	8.93737	0.968304	7.96906	0
    Cs(r):	-8.93737	-0.968304	-7.96906	0

    writing force and moment coefficient files.

forces forces write:
    Sum of forces
        Total    : (10.9483 2.1584 -2.72076e-19)
        Pressure : (1.18617 2.16401 -2.09296e-20)
        Viscous  : (9.7621 -0.00561328 -2.51146e-19)
    Sum of moments
        Total    : (-1.0792 5.47414 0.868228)
        Pressure : (-1.08201 0.593086 0.866873)
        Viscous  : (0.00280664 4.88105 0.00135498)
    writing force and moment files.

Time = 99

smoothSolver:  Solving for Ux, Initial residual = 4.96111e-05, Final residual = 3.9736e-06, No Iterations 4
smoothSolver:  Solving for Uy, Initial residual = 0.00101691, Final residual = 7.27354e-05, No Iterations 5
GAMG:  Solving for p, Initial residual = 0.000205088, Final residual = 1.97667e-06, No Iterations 17
GAMG:  Solving for p, Initial residual = 9.35073e-06, Final residual = 8.43655e-08, No Iterations 29
time step continuity errors : sum local = 2.16638e-08, global = 8.48138e-09, cumulative = -2.68521e-05
smoothSolver:  Solving for nuTilda, Initial residual = 0.000150976, Final residual = 1.31154e-05, No Iterations 10
ExecutionTime = 11.51 s  ClockTime = 12 s

forceCoeffs forceCoeffs write:
    Coefficient	Total	Pressure	Viscous	Internal
    Cd:	17.8482	1.9275	15.9207	0
    Cd(f):	7.18862	-0.776214	7.96483	0
    Cd(r):	10.6596	2.70372	7.95586	0
    Cl:	3.47096	3.47993	-0.00897082	0
    Cl(f):	0.357947	0.364726	-0.00677964	0
    Cl(r):	3.11301	3.1152	-0.00219119	0
    CmPitch:	-1.37753	-1.37524	-0.00229422	0
    CmRoll:	-1.73548	-1.73996	0.00448541	0
    CmYaw:	8.9241	0.963751	7.96034	0
    Cs:	4.44125e-19	3.41211e-20	4.10004e-19	0
    Cs(f):	8.9241	0.963751	7.96034	0
    Cs(r):	-8.9241	-0.963751	-7.96034	0

    writing force and moment coefficient files.

forces forces write:
    Sum of forces
        Total    : (10.932 2.12596 -2.72027e-19)
        Pressure : (1.18059 2.13146 -2.08992e-20)
        Viscous  : (9.75142 -0.00549463 -2.51127e-19)
    Sum of moments
        Total    : (-1.06298 5.46601 0.843739)
        Pressure : (-1.06573 0.590297 0.842333)
        Viscous  : (0.00274731 4.87571 0.00140521)
    writing force and moment files.

Time = 100

smoothSolver:  Solving for Ux, Initial residual = 4.74223e-05, Final residual = 3.84223e-06, No Iterations 4
smoothSolver:  Solving for Uy, Initial residual = 0.0009574, Final residual = 6.95334e-05, No Iterations 5
GAMG:  Solving for p, Initial residual = 0.000199256, Final residual = 1.55528e-06, No Iterations 19
GAMG:  Solving for p, Initial residual = 8.726e-06, Final residual = 8.20077e-08, No Iterations 29
time step continuity errors : sum local = 2.10248e-08, global = 8.04364e-09, cumulative = -2.68441e-05
smoothSolver:  Solving for nuTilda, Initial residual = 0.000165466, Final residual = 1.49058e-05, No Iterations 9
ExecutionTime = 11.67 s  ClockTime = 12 s

forceCoeffs forceCoeffs write:
    Coefficient	Total	Pressure	Viscous	Internal
    Cd:	17.8242	1.91954	15.9047	0
    Cd(f):	7.20258	-0.754177	7.95675	0
    Cd(r):	10.6216	2.67372	7.94792	0
    Cl:	3.41906	3.4279	-0.0088356	0
    Cl(f):	0.371096	0.377877	-0.00678065	0
    Cl(r):	3.04797	3.05002	-0.00205494	0
    CmPitch:	-1.33843	-1.33607	-0.00236285	0
    CmRoll:	-1.70953	-1.71395	0.0044178	0
    CmYaw:	8.91211	0.959772	7.95233	0
    Cs:	4.44029e-19	3.40823e-20	4.09947e-19	0
    Cs(f):	8.91211	0.959772	7.95233	0
    Cs(r):	-8.91211	-0.959772	-7.95233	0

    writing force and moment coefficient files.

forces forces write:
    Sum of forces
        Total    : (10.9173 2.09418 -2.71968e-19)
        Pressure : (1.17572 2.09959 -2.08754e-20)
        Viscous  : (9.74161 -0.0054118 -2.51093e-19)
    Sum of moments
        Total    : (-1.04709 5.45867 0.819791)
        Pressure : (-1.04979 0.58786 0.818344)
        Viscous  : (0.0027059 4.8708 0.00144725)
    writing force and moment files.

End

