/*---------------------------------------------------------------------------*\
| =========                 |                                                 |
| \\      /  F ield         | OpenFOAM: The Open Source CFD Toolbox           |
|  \\    /   O peration     | Version:  2412                                  |
|   \\  /    A nd           | Website:  www.openfoam.com                      |
|    \\/     M anipulation  |                                                 |
\*---------------------------------------------------------------------------*/
Build  : _8dbc61e11c-20241220 OPENFOAM=2412 version=v2412
Arch   : "LSB;label=32;scalar=64"
Exec   : simpleFoam -parallel
Date   : Apr 01 2025
Time   : 14:36:13
Host   : RaiotdeMacBook-Air.local
PID    : 33335
I/O    : uncollated
Case   : /Users/raiot/Documents/Programing/VSCode/airfoilDemo/sims
nProcs : 4
Hosts  :
(
    (RaiotdeMacBook-Air.local 4)
)
Pstream initialized with:
    floatTransfer      : false
    maxCommsSize       : 0
    nProcsSimpleSum    : 0
    nonBlockingExchange: 0 (tuning: 0)
    exchange algorithm : 0
    commsType          : nonBlocking
    polling iterations : 0
trapFpe: Floating point exception trapping enabled (FOAM_SIGFPE).
fileModificationChecking : Monitoring run-time modified files using timeStampMaster (fileModificationSkew 5, maxFileModificationPolls 20)
allowSystemOperations : Allowing user-supplied system call operations

// * * * * * * * * * * * * * * * * * * * * * * * * * * * * * * * * * * * * * //
Create time

Create mesh for time = 0


SIMPLE: convergence criteria
    field p	 tolerance 1e-06
    field U	 tolerance 1e-06
    field nuTilda	 tolerance 1e-06

Reading field p

Reading field U

Reading/calculating face flux field phi

Selecting incompressible transport model Newtonian
Selecting turbulence model type RAS
Selecting RAS turbulence model SpalartAllmaras
Selecting patchDistMethod meshWave
ft2 term: inactive
RAS
{
    RASModel        SpalartAllmaras;
    turbulence      on;
    printCoeffs     on;
    sigmaNut        0.66666;
    kappa           0.41;
    Cb1             0.1355;
    Cb2             0.622;
    Cw2             0.3;
    Cw3             2;
    Cv1             7.1;
    Cs              0.3;
    ck              0.07;
    ft2             false;
    Ct3             1.2;
    Ct4             0.5;
}

No MRF models present

No finite volume options present

Starting time loop

forceCoeffs forceCoeffs:
    rho: rhoInf
    Freestream density (rhoInf) set to 1.225
    Not including porosity effects
    magUInf: 29.6
    lRef   : 1
    Aref   : 1
    rhoInf : 1.225
    Selecting all coefficients
    - Drag force: Cd
    - Drag force front: Cd(f)
    - Drag force rear: Cd(r)
    - Lift force: Cl
    - Lift force front: Cl(f)
    - Lift force rear: Cl(r)
    - Pitch moment: CmPitch
    - Roll moment: CmRoll
    - Yaw moment: CmYaw
    - Side force: Cs
    - Side force front: Cs(f)
    - Side force rear: Cs(r)


forces forces:
    p: p
    U: U
    rho: rhoInf
    Freestream density (rhoInf) set to 1.225
    Not including porosity effects

Time = 1

smoothSolver:  Solving for Ux, Initial residual = 1, Final residual = 0.0182649, No Iterations 1
smoothSolver:  Solving for Uy, Initial residual = 1, Final residual = 0.0192112, No Iterations 1
GAMG:  Solving for p, Initial residual = 1, Final residual = 0.00949867, No Iterations 75
GAMG:  Solving for p, Initial residual = 0.00439929, Final residual = 3.73132e-05, No Iterations 31
time step continuity errors : sum local = 0.000235398, global = 9.33429e-05, cumulative = 9.33429e-05
smoothSolver:  Solving for nuTilda, Initial residual = 1, Final residual = 0.0254571, No Iterations 1
ExecutionTime = 0.14 s  ClockTime = 0 s

forceCoeffs forceCoeffs write:
    Coefficient	Total	Pressure	Viscous	Internal
    Cd:	33.1535	32.5208	0.632756	0
    Cd(f):	-32.7956	-33.1275	0.331897	0
    Cd(r):	65.9492	65.6483	0.300859	0
    Cl:	98.7448	98.7758	-0.0310387	0
    Cl(f):	-5.24351	-5.18684	-0.0566688	0
    Cl(r):	103.988	103.963	0.0256301	0
    CmPitch:	-54.6159	-54.5748	-0.0411495	0
    CmRoll:	-49.3724	-49.3879	0.0155194	0
    CmYaw:	16.5768	16.2604	0.316378	0
    Cs:	2.16035e-19	2.76178e-19	-6.01424e-20	0
    Cs(f):	16.5768	16.2604	0.316378	0
    Cs(r):	-16.5768	-16.2604	-0.316378	0

    writing force and moment coefficient files.

forces forces write:
    Sum of forces
        Total    : (17791.8 52991.2 -1.15935e-16)
        Pressure : (17452.2 53007.9 -1.4821e-16)
        Viscous  : (339.567 -16.6569 3.22753e-17)
    Sum of moments
        Total    : (-26495.6 8895.89 29309.5)
        Pressure : (-26503.9 8726.1 29287.4)
        Viscous  : (8.32843 169.784 22.0828)
    writing force and moment files.

Time = 2

smoothSolver:  Solving for Ux, Initial residual = 0.128101, Final residual = 0.00485393, No Iterations 2
smoothSolver:  Solving for Uy, Initial residual = 0.0714367, Final residual = 0.00262913, No Iterations 2
GAMG:  Solving for p, Initial residual = 0.143452, Final residual = 0.00130546, No Iterations 47
GAMG:  Solving for p, Initial residual = 0.041111, Final residual = 0.000406697, No Iterations 62
time step continuity errors : sum local = 0.000367236, global = -0.000117279, cumulative = -2.39365e-05
smoothSolver:  Solving for nuTilda, Initial residual = 0.0754855, Final residual = 0.00271541, No Iterations 1
ExecutionTime = 0.21 s  ClockTime = 0 s

forceCoeffs forceCoeffs write:
    Coefficient	Total	Pressure	Viscous	Internal
    Cd:	1.28202	0.795911	0.486112	0
    Cd(f):	-0.609836	-0.890678	0.280842	0
    Cd(r):	1.89186	1.68659	0.20527	0
    Cl:	2.5017	2.57727	-0.0755727	0
    Cl(f):	0.181361	0.22637	-0.0450088	0
    Cl(r):	2.32033	2.3509	-0.0305639	0
    CmPitch:	-1.06949	-1.06226	-0.00722249	0
    CmRoll:	-1.25085	-1.28863	0.0377863	0
    CmYaw:	0.641011	0.397956	0.243056	0
    Cs:	8.34574e-21	5.3308e-21	3.01494e-21	0
    Cs(f):	0.641011	0.397956	0.243056	0
    Cs(r):	-0.641011	-0.397956	-0.243056	0

    writing force and moment coefficient files.

forces forces write:
    Sum of forces
        Total    : (687.995 1342.53 -4.47872e-18)
        Pressure : (427.124 1383.09 -2.86076e-18)
        Viscous  : (260.871 -40.5559 -1.61796e-18)
    Sum of moments
        Total    : (-671.265 343.998 573.938)
        Pressure : (-691.543 213.562 570.062)
        Viscous  : (20.278 130.435 3.87594)
    writing force and moment files.

Time = 3

smoothSolver:  Solving for Ux, Initial residual = 0.00599492, Final residual = 0.000247149, No Iterations 2
smoothSolver:  Solving for Uy, Initial residual = 0.00232354, Final residual = 9.39072e-05, No Iterations 2
GAMG:  Solving for p, Initial residual = 0.263973, Final residual = 0.00249772, No Iterations 43
GAMG:  Solving for p, Initial residual = 0.0385958, Final residual = 0.000367936, No Iterations 62
time step continuity errors : sum local = 2.94645e-05, global = -1.03293e-05, cumulative = -3.42658e-05
smoothSolver:  Solving for nuTilda, Initial residual = 0.0277992, Final residual = 0.00135984, No Iterations 1
ExecutionTime = 0.31 s  ClockTime = 0 s

forceCoeffs forceCoeffs write:
    Coefficient	Total	Pressure	Viscous	Internal
    Cd:	0.240102	-0.158353	0.398456	0
    Cd(f):	0.406955	0.17331	0.233645	0
    Cd(r):	-0.166853	-0.331664	0.164811	0
    Cl:	-0.573808	-0.504974	-0.0688343	0
    Cl(f):	0.174823	0.211626	-0.0368029	0
    Cl(r):	-0.748631	-0.7166	-0.0320314	0
    CmPitch:	0.461727	0.464113	-0.00238579	0
    CmRoll:	0.286904	0.252487	0.0344172	0
    CmYaw:	0.120051	-0.0791766	0.199228	0
    Cs:	-1.18095e-21	-1.52681e-21	3.45857e-22	0
    Cs(f):	0.120051	-0.0791766	0.199228	0
    Cs(r):	-0.120051	0.0791766	-0.199228	0

    writing force and moment coefficient files.

forces forces write:
    Sum of forces
        Total    : (128.85 -307.933 6.33754e-19)
        Pressure : (-84.9799 -270.993 8.19357e-19)
        Viscous  : (213.83 -36.9398 -1.85604e-19)
    Sum of moments
        Total    : (153.967 64.4252 -247.785)
        Pressure : (135.497 -42.49 -249.065)
        Viscous  : (18.4699 106.915 1.28033)
    writing force and moment files.

Time = 4

smoothSolver:  Solving for Ux, Initial residual = 0.00246494, Final residual = 7.22775e-05, No Iterations 2
smoothSolver:  Solving for Uy, Initial residual = 0.000790591, Final residual = 2.6497e-05, No Iterations 2
GAMG:  Solving for p, Initial residual = 0.123956, Final residual = 0.00111336, No Iterations 43
GAMG:  Solving for p, Initial residual = 0.0170619, Final residual = 0.000158386, No Iterations 66
time step continuity errors : sum local = 6.23573e-06, global = 1.9291e-06, cumulative = -3.23367e-05
smoothSolver:  Solving for nuTilda, Initial residual = 0.0136728, Final residual = 0.00087121, No Iterations 1
ExecutionTime = 0.38 s  ClockTime = 0 s

forceCoeffs forceCoeffs write:
    Coefficient	Total	Pressure	Viscous	Internal
    Cd:	0.320218	-0.0147069	0.334925	0
    Cd(f):	0.174609	-0.0220389	0.196648	0
    Cd(r):	0.145609	0.00733198	0.138277	0
    Cl:	-0.0290006	0.0293709	-0.0583715	0
    Cl(f):	0.107251	0.137961	-0.0307101	0
    Cl(r):	-0.136252	-0.10859	-0.0276614	0
    CmPitch:	0.121751	0.123276	-0.00152437	0
    CmRoll:	0.0145003	-0.0146854	0.0291857	0
    CmYaw:	0.160109	-0.00735345	0.167463	0
    Cs:	-2.695e-22	-4.24411e-22	1.54911e-22	0
    Cs(f):	0.160109	-0.00735345	0.167463	0
    Cs(r):	-0.160109	0.00735345	-0.167463	0

    writing force and moment coefficient files.

forces forces write:
    Sum of forces
        Total    : (171.844 -15.5631 1.44627e-19)
        Pressure : (-7.89243 15.7618 2.27759e-19)
        Viscous  : (179.737 -31.3249 -8.31326e-20)
    Sum of moments
        Total    : (7.78156 85.9222 -65.3376)
        Pressure : (-7.88091 -3.94622 -66.1557)
        Viscous  : (15.6625 89.8685 0.818051)
    writing force and moment files.

Time = 5

smoothSolver:  Solving for Ux, Initial residual = 0.00116475, Final residual = 3.69963e-05, No Iterations 2
smoothSolver:  Solving for Uy, Initial residual = 0.000477114, Final residual = 1.63424e-05, No Iterations 2
GAMG:  Solving for p, Initial residual = 0.0863177, Final residual = 0.000814321, No Iterations 32
GAMG:  Solving for p, Initial residual = 0.00288852, Final residual = 2.76407e-05, No Iterations 82
time step continuity errors : sum local = 1.74446e-06, global = 5.87462e-07, cumulative = -3.17492e-05
smoothSolver:  Solving for nuTilda, Initial residual = 0.00773899, Final residual = 0.000622912, No Iterations 1
ExecutionTime = 0.46 s  ClockTime = 0 s

forceCoeffs forceCoeffs write:
    Coefficient	Total	Pressure	Viscous	Internal
    Cd:	0.295129	0.00831262	0.286816	0
    Cd(f):	0.111544	-0.0567219	0.168266	0
    Cd(r):	0.183585	0.0650346	0.118551	0
    Cl:	0.0720414	0.121757	-0.0497151	0
    Cl(f):	0.103098	0.12919	-0.0260919	0
    Cl(r):	-0.0310564	-0.00743316	-0.0236233	0
    CmPitch:	0.0670771	0.0683114	-0.00123432	0
    CmRoll:	-0.0360207	-0.0608783	0.0248576	0
    CmYaw:	0.147564	0.00415631	0.143408	0
    Cs:	-1.16919e-22	-2.79473e-22	1.62554e-22	0
    Cs(f):	0.147564	0.00415631	0.143408	0
    Cs(r):	-0.147564	-0.00415631	-0.143408	0

    writing force and moment coefficient files.

forces forces write:
    Sum of forces
        Total    : (158.38 38.6609 6.27441e-20)
        Pressure : (4.46095 65.3404 1.49978e-19)
        Viscous  : (153.919 -26.6795 -8.72344e-20)
    Sum of moments
        Total    : (-19.3304 79.1902 -35.9968)
        Pressure : (-32.6702 2.23048 -36.6592)
        Viscous  : (13.3398 76.9597 0.662394)
    writing force and moment files.

Time = 6

smoothSolver:  Solving for Ux, Initial residual = 0.000990193, Final residual = 3.0979e-05, No Iterations 2
smoothSolver:  Solving for Uy, Initial residual = 0.000484489, Final residual = 1.61789e-05, No Iterations 2
GAMG:  Solving for p, Initial residual = 0.0280027, Final residual = 0.000249099, No Iterations 15
GAMG:  Solving for p, Initial residual = 0.000595777, Final residual = 5.81806e-06, No Iterations 104
time step continuity errors : sum local = 3.61956e-07, global = -9.77504e-08, cumulative = -3.1847e-05
smoothSolver:  Solving for nuTilda, Initial residual = 0.00495822, Final residual = 0.000473348, No Iterations 1
ExecutionTime = 0.55 s  ClockTime = 0 s

forceCoeffs forceCoeffs write:
    Coefficient	Total	Pressure	Viscous	Internal
    Cd:	0.257185	0.00748622	0.249698	0
    Cd(f):	0.0887979	-0.0575453	0.146343	0
    Cd(r):	0.168387	0.0650315	0.103355	0
    Cl:	0.0795887	0.122577	-0.0429881	0
    Cl(f):	0.108273	0.130842	-0.0225685	0
    Cl(r):	-0.0286847	-0.00826504	-0.0204196	0
    CmPitch:	0.068479	0.0695534	-0.00107443	0
    CmRoll:	-0.0397943	-0.0612884	0.0214941	0
    CmYaw:	0.128592	0.00374311	0.124849	0
    Cs:	-1.16725e-22	-2.78641e-22	1.61915e-22	0
    Cs(f):	0.128592	0.00374311	0.124849	0
    Cs(r):	-0.128592	-0.00374311	-0.124849	0

    writing force and moment coefficient files.

forces forces write:
    Sum of forces
        Total    : (138.018 42.7111 6.26405e-20)
        Pressure : (4.01746 65.7806 1.49532e-19)
        Viscous  : (134 -23.0695 -8.68915e-20)
    Sum of moments
        Total    : (-21.3555 69.0088 -36.7491)
        Pressure : (-32.8903 2.00873 -37.3257)
        Viscous  : (11.5347 67 0.576593)
    writing force and moment files.

Time = 7

smoothSolver:  Solving for Ux, Initial residual = 0.000905118, Final residual = 2.91998e-05, No Iterations 2
smoothSolver:  Solving for Uy, Initial residual = 0.000479625, Final residual = 1.61956e-05, No Iterations 2
GAMG:  Solving for p, Initial residual = 0.015854, Final residual = 0.000152589, No Iterations 15
GAMG:  Solving for p, Initial residual = 0.000339831, Final residual = 3.3413e-06, No Iterations 90
time step continuity errors : sum local = 1.95569e-07, global = -3.43421e-08, cumulative = -3.18813e-05
smoothSolver:  Solving for nuTilda, Initial residual = 0.00329695, Final residual = 5.36982e-05, No Iterations 2
ExecutionTime = 0.62 s  ClockTime = 0 s

forceCoeffs forceCoeffs write:
    Coefficient	Total	Pressure	Viscous	Internal
    Cd:	0.228486	0.00785865	0.220627	0
    Cd(f):	0.0694575	-0.0597422	0.1292	0
    Cd(r):	0.159028	0.0676009	0.0914275	0
    Cl:	0.0895709	0.127343	-0.0377722	0
    Cl(f):	0.111792	0.131625	-0.0198335	0
    Cl(r):	-0.022221	-0.0042822	-0.0179388	0
    CmPitch:	0.0670064	0.0679537	-0.000947339	0
    CmRoll:	-0.0447854	-0.0636715	0.0188861	0
    CmYaw:	0.114243	0.00392932	0.110314	0
    Cs:	-1.09847e-22	-2.72181e-22	1.62334e-22	0
    Cs(f):	0.114243	0.00392932	0.110314	0
    Cs(r):	-0.114243	-0.00392932	-0.110314	0

    writing force and moment coefficient files.

forces forces write:
    Sum of forces
        Total    : (122.616 48.068 5.8949e-20)
        Pressure : (4.21733 68.3384 1.46065e-19)
        Viscous  : (118.399 -20.2704 -8.71162e-20)
    Sum of moments
        Total    : (-24.034 61.3082 -35.9589)
        Pressure : (-34.1692 2.10866 -36.4672)
        Viscous  : (10.1352 59.1996 0.508388)
    writing force and moment files.

Time = 8

smoothSolver:  Solving for Ux, Initial residual = 0.000845526, Final residual = 2.80374e-05, No Iterations 2
smoothSolver:  Solving for Uy, Initial residual = 0.000477504, Final residual = 1.62223e-05, No Iterations 2
GAMG:  Solving for p, Initial residual = 0.00975275, Final residual = 9.28768e-05, No Iterations 22
GAMG:  Solving for p, Initial residual = 0.000221544, Final residual = 2.11438e-06, No Iterations 94
time step continuity errors : sum local = 1.20169e-07, global = 3.73141e-08, cumulative = -3.1844e-05
smoothSolver:  Solving for nuTilda, Initial residual = 0.0021136, Final residual = 4.55886e-05, No Iterations 2
ExecutionTime = 0.71 s  ClockTime = 1 s

forceCoeffs forceCoeffs write:
    Coefficient	Total	Pressure	Viscous	Internal
    Cd:	0.206464	0.00894305	0.19752	0
    Cd(f):	0.0526345	-0.0629661	0.115601	0
    Cd(r):	0.153829	0.0719091	0.0819199	0
    Cl:	0.101194	0.134875	-0.0336807	0
    Cl(f):	0.11433	0.132005	-0.0176749	0
    Cl(r):	-0.0131358	0.00286999	-0.0160058	0
    CmPitch:	0.0637331	0.0645676	-0.000834533	0
    CmRoll:	-0.0505972	-0.0674376	0.0168404	0
    CmYaw:	0.103232	0.00447153	0.0987602	0
    Cs:	-1.01319e-22	-2.6364e-22	1.62321e-22	0
    Cs(f):	0.103232	0.00447153	0.0987602	0
    Cs(r):	-0.103232	-0.00447153	-0.0987602	0

    writing force and moment coefficient files.

forces forces write:
    Sum of forces
        Total    : (110.798 54.3058 5.43724e-20)
        Pressure : (4.79927 72.3805 1.41482e-19)
        Viscous  : (105.999 -18.0747 -8.71094e-20)
    Sum of moments
        Total    : (-27.1529 55.3991 -34.2022)
        Pressure : (-36.1902 2.39964 -34.6501)
        Viscous  : (9.03735 52.9995 0.44785)
    writing force and moment files.

Time = 9

smoothSolver:  Solving for Ux, Initial residual = 0.000800176, Final residual = 2.70998e-05, No Iterations 2
smoothSolver:  Solving for Uy, Initial residual = 0.000477502, Final residual = 1.62944e-05, No Iterations 2
GAMG:  Solving for p, Initial residual = 0.00646039, Final residual = 6.39371e-05, No Iterations 26
GAMG:  Solving for p, Initial residual = 0.000183503, Final residual = 1.73369e-06, No Iterations 82
time step continuity errors : sum local = 9.70715e-08, global = 3.57655e-08, cumulative = -3.18082e-05
smoothSolver:  Solving for nuTilda, Initial residual = 0.00161023, Final residual = 3.82576e-05, No Iterations 2
ExecutionTime = 0.78 s  ClockTime = 1 s

forceCoeffs forceCoeffs write:
    Coefficient	Total	Pressure	Viscous	Internal
    Cd:	0.188916	0.0100257	0.17889	0
    Cd(f):	0.0384429	-0.0662135	0.104656	0
    Cd(r):	0.150473	0.0762392	0.0742338	0
    Cl:	0.11203	0.142453	-0.0304225	0
    Cl(f):	0.116417	0.132362	-0.0159448	0
    Cl(r):	-0.00438683	0.0100908	-0.0144777	0
    CmPitch:	0.0604019	0.0611355	-0.000733578	0
    CmRoll:	-0.0560151	-0.0712263	0.0152112	0
    CmYaw:	0.0944579	0.00501287	0.0894451	0
    Cs:	-9.33636e-23	-2.55492e-22	1.62128e-22	0
    Cs(f):	0.0944579	0.00501287	0.0894451	0
    Cs(r):	-0.0944579	-0.00501287	-0.0894451	0

    writing force and moment coefficient files.

forces forces write:
    Sum of forces
        Total    : (101.381 60.1208 5.01034e-20)
        Pressure : (5.3803 76.4469 1.37109e-19)
        Viscous  : (96.001 -16.3262 -8.70058e-20)
    Sum of moments
        Total    : (-30.0604 50.6907 -32.4146)
        Pressure : (-38.2235 2.69015 -32.8082)
        Viscous  : (8.16308 48.0005 0.393673)
    writing force and moment files.

Time = 10

smoothSolver:  Solving for Ux, Initial residual = 0.000764314, Final residual = 2.63922e-05, No Iterations 2
smoothSolver:  Solving for Uy, Initial residual = 0.000478103, Final residual = 1.63755e-05, No Iterations 2
GAMG:  Solving for p, Initial residual = 0.0046819, Final residual = 4.1302e-05, No Iterations 32
GAMG:  Solving for p, Initial residual = 0.000161515, Final residual = 1.59549e-06, No Iterations 72
time step continuity errors : sum local = 8.84053e-08, global = 3.30617e-08, cumulative = -3.17752e-05
smoothSolver:  Solving for nuTilda, Initial residual = 0.00130538, Final residual = 3.26277e-05, No Iterations 2
ExecutionTime = 0.87 s  ClockTime = 1 s

forceCoeffs forceCoeffs write:
    Coefficient	Total	Pressure	Viscous	Internal
    Cd:	0.174713	0.0110608	0.163652	0
    Cd(f):	0.0262845	-0.0694338	0.0957183	0
    Cd(r):	0.148428	0.0804945	0.0679338	0
    Cl:	0.122144	0.149928	-0.0277845	0
    Cl(f):	0.118198	0.132735	-0.0145372	0
    Cl(r):	0.00394579	0.017193	-0.0132472	0
    CmPitch:	0.0571261	0.0577711	-0.000644993	0
    CmRoll:	-0.0610719	-0.0749642	0.0138922	0
    CmYaw:	0.0873564	0.00553038	0.081826	0
    Cs:	-8.61218e-23	-2.48093e-22	1.61971e-22	0
    Cs(f):	0.0873564	0.00553038	0.081826	0
    Cs(r):	-0.0873564	-0.00553038	-0.081826	0

    writing force and moment coefficient files.

forces forces write:
    Sum of forces
        Total    : (93.7593 65.5483 4.62171e-20)
        Pressure : (5.93573 80.4587 1.33139e-19)
        Viscous  : (87.8235 -14.9105 -8.69216e-20)
    Sum of moments
        Total    : (-32.7741 46.8796 -30.6566)
        Pressure : (-40.2294 2.96787 -31.0028)
        Viscous  : (7.45524 43.9118 0.346134)
    writing force and moment files.

Time = 11

smoothSolver:  Solving for Ux, Initial residual = 0.000734839, Final residual = 2.5779e-05, No Iterations 2
smoothSolver:  Solving for Uy, Initial residual = 0.000478775, Final residual = 1.64346e-05, No Iterations 2
GAMG:  Solving for p, Initial residual = 0.00367716, Final residual = 3.60677e-05, No Iterations 34
GAMG:  Solving for p, Initial residual = 0.000155621, Final residual = 1.43786e-06, No Iterations 70
time step continuity errors : sum local = 7.91261e-08, global = 2.91444e-08, cumulative = -3.1746e-05
smoothSolver:  Solving for nuTilda, Initial residual = 0.00111641, Final residual = 2.8649e-05, No Iterations 2
ExecutionTime = 0.94 s  ClockTime = 1 s

forceCoeffs forceCoeffs write:
    Coefficient	Total	Pressure	Viscous	Internal
    Cd:	0.163079	0.0120617	0.151017	0
    Cd(f):	0.0156777	-0.0726378	0.0883156	0
    Cd(r):	0.147401	0.0846995	0.0627018	0
    Cl:	0.131724	0.157337	-0.0256138	0
    Cl(f):	0.119741	0.133117	-0.0133757	0
    Cl(r):	0.0119824	0.0242205	-0.0122381	0
    CmPitch:	0.0538794	0.0544482	-0.00056879	0
    CmRoll:	-0.0658618	-0.0786687	0.0128069	0
    CmYaw:	0.0815395	0.00603084	0.0755087	0
    Cs:	-7.96594e-23	-2.41647e-22	1.61987e-22	0
    Cs(f):	0.0815395	0.00603084	0.0755087	0
    Cs(r):	-0.0815395	-0.00603084	-0.0755087	0

    writing force and moment coefficient files.

forces forces write:
    Sum of forces
        Total    : (87.516 70.6892 4.2749e-20)
        Pressure : (6.47288 84.4348 1.29679e-19)
        Viscous  : (81.0432 -13.7456 -8.69301e-20)
    Sum of moments
        Total    : (-35.3446 43.758 -28.9143)
        Pressure : (-42.2174 3.23644 -29.2195)
        Viscous  : (6.8728 40.5216 0.30524)
    writing force and moment files.

Time = 12

smoothSolver:  Solving for Ux, Initial residual = 0.000709995, Final residual = 2.51889e-05, No Iterations 2
smoothSolver:  Solving for Uy, Initial residual = 0.000478842, Final residual = 1.64621e-05, No Iterations 2
GAMG:  Solving for p, Initial residual = 0.00313362, Final residual = 2.82509e-05, No Iterations 38
GAMG:  Solving for p, Initial residual = 0.000148502, Final residual = 1.44199e-06, No Iterations 66
time step continuity errors : sum local = 7.90458e-08, global = 2.87122e-08, cumulative = -3.17173e-05
smoothSolver:  Solving for nuTilda, Initial residual = 0.000942668, Final residual = 2.47851e-05, No Iterations 2
ExecutionTime = 1.02 s  ClockTime = 1 s

forceCoeffs forceCoeffs write:
    Coefficient	Total	Pressure	Viscous	Internal
    Cd:	0.15344	0.0130346	0.140405	0
    Cd(f):	0.00627778	-0.0758251	0.0821029	0
    Cd(r):	0.147162	0.0888597	0.0583023	0
    Cl:	0.140884	0.164685	-0.0238005	0
    Cl(f):	0.1211	0.133504	-0.0124044	0
    Cl(r):	0.0197843	0.0311805	-0.0113962	0
    CmPitch:	0.0506578	0.0511619	-0.000504087	0
    CmRoll:	-0.0704421	-0.0823424	0.0119003	0
    CmYaw:	0.0767199	0.00651731	0.0702026	0
    Cs:	-7.37832e-23	-2.35939e-22	1.62156e-22	0
    Cs(f):	0.0767199	0.00651731	0.0702026	0
    Cs(r):	-0.0767199	-0.00651731	-0.0702026	0

    writing force and moment coefficient files.

forces forces write:
    Sum of forces
        Total    : (82.3432 75.6053 3.95956e-20)
        Pressure : (6.995 88.3778 1.26616e-19)
        Viscous  : (75.3482 -12.7725 -8.70206e-20)
    Sum of moments
        Total    : (-37.8026 41.1716 -27.1854)
        Pressure : (-44.1889 3.4975 -27.4559)
        Viscous  : (6.38626 37.6741 0.270517)
    writing force and moment files.

Time = 13

smoothSolver:  Solving for Ux, Initial residual = 0.000687895, Final residual = 2.46172e-05, No Iterations 2
smoothSolver:  Solving for Uy, Initial residual = 0.000478501, Final residual = 1.64645e-05, No Iterations 2
GAMG:  Solving for p, Initial residual = 0.00279912, Final residual = 2.78454e-05, No Iterations 38
GAMG:  Solving for p, Initial residual = 0.000146388, Final residual = 1.3918e-06, No Iterations 66
time step continuity errors : sum local = 7.61392e-08, global = 2.7541e-08, cumulative = -3.16898e-05
smoothSolver:  Solving for nuTilda, Initial residual = 0.000833522, Final residual = 2.2161e-05, No Iterations 2
ExecutionTime = 1.09 s  ClockTime = 1 s

forceCoeffs forceCoeffs write:
    Coefficient	Total	Pressure	Viscous	Internal
    Cd:	0.145369	0.0139851	0.131384	0
    Cd(f):	-0.00217066	-0.0789949	0.0768243	0
    Cd(r):	0.14754	0.0929801	0.0545596	0
    Cl:	0.14971	0.171975	-0.0222647	0
    Cl(f):	0.122312	0.133894	-0.0115819	0
    Cl(r):	0.0273984	0.0380813	-0.0106829	0
    CmPitch:	0.0474567	0.0479062	-0.000449501	0
    CmRoll:	-0.0748551	-0.0859875	0.0111324	0
    CmYaw:	0.0726845	0.00699257	0.0656919	0
    Cs:	-6.83116e-23	-2.30728e-22	1.62417e-22	0
    Cs(f):	0.0726845	0.00699257	0.0656919	0
    Cs(r):	-0.0726845	-0.00699257	-0.0656919	0

    writing force and moment coefficient files.

forces forces write:
    Sum of forces
        Total    : (78.012 80.3417 3.66593e-20)
        Pressure : (7.5051 92.2901 1.2382e-19)
        Viscous  : (70.5069 -11.9483 -8.71605e-20)
    Sum of moments
        Total    : (-40.1709 39.006 -25.4676)
        Pressure : (-46.145 3.75255 -25.7088)
        Viscous  : (5.97416 35.2534 0.241224)
    writing force and moment files.

Time = 14

smoothSolver:  Solving for Ux, Initial residual = 0.000667895, Final residual = 2.40582e-05, No Iterations 2
smoothSolver:  Solving for Uy, Initial residual = 0.000477981, Final residual = 1.64464e-05, No Iterations 2
GAMG:  Solving for p, Initial residual = 0.00255239, Final residual = 2.42541e-05, No Iterations 40
GAMG:  Solving for p, Initial residual = 0.00014188, Final residual = 1.37994e-06, No Iterations 64
time step continuity errors : sum local = 7.54222e-08, global = 2.72036e-08, cumulative = -3.16626e-05
smoothSolver:  Solving for nuTilda, Initial residual = 0.000747503, Final residual = 2.00203e-05, No Iterations 2
ExecutionTime = 1.17 s  ClockTime = 1 s

forceCoeffs forceCoeffs write:
    Coefficient	Total	Pressure	Viscous	Internal
    Cd:	0.138545	0.0149161	0.123629	0
    Cd(f):	-0.0098598	-0.0821479	0.0722881	0
    Cd(r):	0.148405	0.097064	0.0513405	0
    Cl:	0.158264	0.179212	-0.0209476	0
    Cl(f):	0.12341	0.134288	-0.0108773	0
    Cl(r):	0.0348539	0.0449242	-0.0100703	0
    CmPitch:	0.0442782	0.0446818	-0.000403516	0
    CmRoll:	-0.0791322	-0.089606	0.0104738	0
    CmYaw:	0.0692724	0.00745807	0.0618143	0
    Cs:	-6.30826e-23	-2.25806e-22	1.62723e-22	0
    Cs(f):	0.0692724	0.00745807	0.0618143	0
    Cs(r):	-0.0692724	-0.00745807	-0.0618143	0

    writing force and moment coefficient files.

forces forces write:
    Sum of forces
        Total    : (74.3498 84.9322 3.38532e-20)
        Pressure : (8.00472 96.1737 1.21178e-19)
        Viscous  : (66.345 -11.2415 -8.73252e-20)
    Sum of moments
        Total    : (-42.4661 37.1749 -23.7618)
        Pressure : (-48.0869 4.00236 -23.9784)
        Viscous  : (5.62074 33.1725 0.216546)
    writing force and moment files.

Time = 15

smoothSolver:  Solving for Ux, Initial residual = 0.000649979, Final residual = 2.35227e-05, No Iterations 2
smoothSolver:  Solving for Uy, Initial residual = 0.000477467, Final residual = 1.64261e-05, No Iterations 2
GAMG:  Solving for p, Initial residual = 0.00236659, Final residual = 2.35249e-05, No Iterations 40
GAMG:  Solving for p, Initial residual = 0.000139055, Final residual = 1.30991e-06, No Iterations 64
time step continuity errors : sum local = 7.15469e-08, global = 2.58434e-08, cumulative = -3.16367e-05
smoothSolver:  Solving for nuTilda, Initial residual = 0.000662063, Final residual = 1.78502e-05, No Iterations 2
ExecutionTime = 1.24 s  ClockTime = 1 s

forceCoeffs forceCoeffs write:
    Coefficient	Total	Pressure	Viscous	Internal
    Cd:	0.132724	0.0158316	0.116893	0
    Cd(f):	-0.0169328	-0.0852818	0.068349	0
    Cd(r):	0.149657	0.101113	0.0485438	0
    Cl:	0.16659	0.186395	-0.0198053	0
    Cl(f):	0.124416	0.134683	-0.0102673	0
    Cl(r):	0.0421742	0.0517121	-0.00953794	0
    CmPitch:	0.0411208	0.0414855	-0.0003647	0
    CmRoll:	-0.083295	-0.0931976	0.00990264	0
    CmYaw:	0.0663622	0.00791578	0.0584464	0
    Cs:	-5.79249e-23	-2.20943e-22	1.63018e-22	0
    Cs(f):	0.0663622	0.00791578	0.0584464	0
    Cs(r):	-0.0663622	-0.00791578	-0.0584464	0

    writing force and moment coefficient files.

forces forces write:
    Sum of forces
        Total    : (71.2263 89.4002 3.10853e-20)
        Pressure : (8.49597 100.029 1.18569e-19)
        Viscous  : (62.7303 -10.6285 -8.74835e-20)
    Sum of moments
        Total    : (-44.7001 35.6131 -22.0674)
        Pressure : (-50.0143 4.24799 -22.2631)
        Viscous  : (5.31423 31.3651 0.195716)
    writing force and moment files.

Time = 16

smoothSolver:  Solving for Ux, Initial residual = 0.000633934, Final residual = 2.30172e-05, No Iterations 2
smoothSolver:  Solving for Uy, Initial residual = 0.000476986, Final residual = 1.6401e-05, No Iterations 2
GAMG:  Solving for p, Initial residual = 0.00225321, Final residual = 2.24389e-05, No Iterations 40
GAMG:  Solving for p, Initial residual = 0.00013601, Final residual = 1.24421e-06, No Iterations 64
time step continuity errors : sum local = 6.78972e-08, global = 2.46124e-08, cumulative = -3.16121e-05
smoothSolver:  Solving for nuTilda, Initial residual = 0.000603276, Final residual = 1.62964e-05, No Iterations 2
ExecutionTime = 1.32 s  ClockTime = 1 s

forceCoeffs forceCoeffs write:
    Coefficient	Total	Pressure	Viscous	Internal
    Cd:	0.127721	0.0167338	0.110987	0
    Cd(f):	-0.0235005	-0.0883963	0.0648958	0
    Cd(r):	0.151221	0.10513	0.0460912	0
    Cl:	0.174722	0.193526	-0.0188046	0
    Cl(f):	0.125346	0.13508	-0.00973409	0
    Cl(r):	0.0493756	0.0584461	-0.0090705	0
    CmPitch:	0.0379853	0.0383171	-0.000331794	0
    CmRoll:	-0.0873609	-0.0967632	0.0094023	0
    CmYaw:	0.0638604	0.00836688	0.0554935	0
    Cs:	-5.26946e-23	-2.15961e-22	1.63267e-22	0
    Cs(f):	0.0638604	0.00836688	0.0554935	0
    Cs(r):	-0.0638604	-0.00836688	-0.0554935	0

    writing force and moment coefficient files.

forces forces write:
    Sum of forces
        Total    : (68.5411 93.7641 2.82785e-20)
        Pressure : (8.98014 103.856 1.15895e-19)
        Viscous  : (59.561 -10.0914 -8.76167e-20)
    Sum of moments
        Total    : (-46.8821 34.2706 -20.3847)
        Pressure : (-51.9278 4.49007 -20.5628)
        Viscous  : (5.04572 29.7805 0.178057)
    writing force and moment files.

Time = 17

smoothSolver:  Solving for Ux, Initial residual = 0.000619533, Final residual = 2.2549e-05, No Iterations 2
smoothSolver:  Solving for Uy, Initial residual = 0.000476654, Final residual = 1.63821e-05, No Iterations 2
GAMG:  Solving for p, Initial residual = 0.00208864, Final residual = 1.91474e-05, No Iterations 42
GAMG:  Solving for p, Initial residual = 0.000132039, Final residual = 1.23798e-06, No Iterations 62
time step continuity errors : sum local = 6.75042e-08, global = 2.46048e-08, cumulative = -3.15875e-05
smoothSolver:  Solving for nuTilda, Initial residual = 0.0005573, Final residual = 1.50572e-05, No Iterations 2
ExecutionTime = 1.39 s  ClockTime = 1 s

forceCoeffs forceCoeffs write:
    Coefficient	Total	Pressure	Viscous	Internal
    Cd:	0.123383	0.0176188	0.105764	0
    Cd(f):	-0.0296484	-0.0914906	0.0618422	0
    Cd(r):	0.153032	0.109109	0.0439222	0
    Cl:	0.18268	0.2006	-0.01792	0
    Cl(f):	0.126216	0.13548	-0.00926376	0
    Cl(r):	0.0564637	0.0651199	-0.00865628	0
    CmPitch:	0.0348763	0.03518	-0.000303739	0
    CmRoll:	-0.09134	-0.1003	0.00896002	0
    CmYaw:	0.0616916	0.00880941	0.0528822	0
    Cs:	-4.75523e-23	-2.11048e-22	1.63496e-22	0
    Cs(f):	0.0616916	0.00880941	0.0528822	0
    Cs(r):	-0.0616916	-0.00880941	-0.0528822	0

    writing force and moment coefficient files.

forces forces write:
    Sum of forces
        Total    : (66.2133 98.0348 2.55189e-20)
        Pressure : (9.45511 107.652 1.13259e-19)
        Viscous  : (56.7582 -9.61675 -8.77397e-20)
    Sum of moments
        Total    : (-49.0174 33.1067 -18.7163)
        Pressure : (-53.8258 4.72755 -18.8793)
        Viscous  : (4.80838 28.3791 0.163001)
    writing force and moment files.

Time = 18

smoothSolver:  Solving for Ux, Initial residual = 0.000606342, Final residual = 2.20998e-05, No Iterations 2
smoothSolver:  Solving for Uy, Initial residual = 0.000476442, Final residual = 1.63605e-05, No Iterations 2
GAMG:  Solving for p, Initial residual = 0.00202511, Final residual = 1.84122e-05, No Iterations 42
GAMG:  Solving for p, Initial residual = 0.000129861, Final residual = 1.19594e-06, No Iterations 62
time step continuity errors : sum local = 6.51889e-08, global = 2.37603e-08, cumulative = -3.15637e-05
smoothSolver:  Solving for nuTilda, Initial residual = 0.000508406, Final residual = 1.37381e-05, No Iterations 2
ExecutionTime = 1.46 s  ClockTime = 1 s

forceCoeffs forceCoeffs write:
    Coefficient	Total	Pressure	Viscous	Internal
    Cd:	0.119594	0.0184846	0.10111	0
    Cd(f):	-0.0354445	-0.0945651	0.0591207	0
    Cd(r):	0.155039	0.11305	0.0419889	0
    Cl:	0.190483	0.207615	-0.0171318	0
    Cl(f):	0.127036	0.135882	-0.00884555	0
    Cl(r):	0.0634471	0.0717333	-0.00828622	0
    CmPitch:	0.0317945	0.0320742	-0.000279664	0
    CmRoll:	-0.0952416	-0.103807	0.00856589	0
    CmYaw:	0.0597971	0.00924231	0.0505548	0
    Cs:	-4.26476e-23	-2.0639e-22	1.63742e-22	0
    Cs(f):	0.0597971	0.00924231	0.0505548	0
    Cs(r):	-0.0597971	-0.00924231	-0.0505548	0

    writing force and moment coefficient files.

forces forces write:
    Sum of forces
        Total    : (64.18 102.222 2.28867e-20)
        Pressure : (9.91974 111.416 1.10759e-19)
        Viscous  : (54.2602 -9.19373 -8.78719e-20)
    Sum of moments
        Total    : (-51.1112 32.09 -17.0625)
        Pressure : (-55.7081 4.95987 -17.2125)
        Viscous  : (4.59687 27.1301 0.150081)
    writing force and moment files.

Time = 19

smoothSolver:  Solving for Ux, Initial residual = 0.00059409, Final residual = 2.16697e-05, No Iterations 2
smoothSolver:  Solving for Uy, Initial residual = 0.000476168, Final residual = 1.63343e-05, No Iterations 2
GAMG:  Solving for p, Initial residual = 0.00190168, Final residual = 1.78397e-05, No Iterations 42
GAMG:  Solving for p, Initial residual = 0.000127756, Final residual = 1.16236e-06, No Iterations 62
time step continuity errors : sum local = 6.33583e-08, global = 2.31067e-08, cumulative = -3.15406e-05
smoothSolver:  Solving for nuTilda, Initial residual = 0.000470078, Final residual = 1.26741e-05, No Iterations 2
ExecutionTime = 1.54 s  ClockTime = 1 s

forceCoeffs forceCoeffs write:
    Coefficient	Total	Pressure	Viscous	Internal
    Cd:	0.116263	0.0193315	0.0969312	0
    Cd(f):	-0.0409402	-0.097618	0.0566777	0
    Cd(r):	0.157203	0.116949	0.0402535	0
    Cl:	0.198143	0.214567	-0.0164242	0
    Cl(f):	0.127814	0.136285	-0.00847096	0
    Cl(r):	0.0703297	0.0782829	-0.00795324	0
    CmPitch:	0.028742	0.0290008	-0.000258864	0
    CmRoll:	-0.0990716	-0.107284	0.0082121	0
    CmYaw:	0.0581314	0.00966576	0.0484656	0
    Cs:	-3.79827e-23	-2.01972e-22	1.63989e-22	0
    Cs(f):	0.0581314	0.00966576	0.0484656	0
    Cs(r):	-0.0581314	-0.00966576	-0.0484656	0

    writing force and moment coefficient files.

forces forces write:
    Sum of forces
        Total    : (62.3922 106.333 2.03833e-20)
        Pressure : (10.3742 115.147 1.08388e-19)
        Viscous  : (52.018 -8.81401 -8.80044e-20)
    Sum of moments
        Total    : (-53.1666 31.1961 -15.4243)
        Pressure : (-57.5736 5.18711 -15.5632)
        Viscous  : (4.40701 26.009 0.138919)
    writing force and moment files.

Time = 20

smoothSolver:  Solving for Ux, Initial residual = 0.000582469, Final residual = 2.12532e-05, No Iterations 2
smoothSolver:  Solving for Uy, Initial residual = 0.000475869, Final residual = 1.63077e-05, No Iterations 2
GAMG:  Solving for p, Initial residual = 0.00183999, Final residual = 1.71197e-05, No Iterations 42
GAMG:  Solving for p, Initial residual = 0.0001257, Final residual = 1.24714e-06, No Iterations 60
time step continuity errors : sum local = 6.80061e-08, global = 2.49074e-08, cumulative = -3.15157e-05
smoothSolver:  Solving for nuTilda, Initial residual = 0.000441081, Final residual = 1.18559e-05, No Iterations 2
ExecutionTime = 1.63 s  ClockTime = 1 s

forceCoeffs forceCoeffs write:
    Coefficient	Total	Pressure	Viscous	Internal
    Cd:	0.113315	0.0201586	0.0931565	0
    Cd(f):	-0.0461766	-0.100647	0.0544707	0
    Cd(r):	0.159492	0.120806	0.0386858	0
    Cl:	0.205668	0.221453	-0.0157849	0
    Cl(f):	0.128556	0.136689	-0.00813321	0
    Cl(r):	0.0771128	0.0847645	-0.00765168	0
    CmPitch:	0.0257213	0.0259621	-0.000240768	0
    CmRoll:	-0.102834	-0.110727	0.00789244	0
    CmYaw:	0.0566575	0.0100793	0.0465783	0
    Cs:	-3.34972e-23	-1.97724e-22	1.64227e-22	0
    Cs(f):	0.0566575	0.0100793	0.0465783	0
    Cs(r):	-0.0566575	-0.0100793	-0.0465783	0

    writing force and moment coefficient files.

forces forces write:
    Sum of forces
        Total    : (60.8103 110.372 1.79762e-20)
        Pressure : (10.8181 118.842 1.06108e-19)
        Viscous  : (49.9923 -8.47093 -8.8132e-20)
    Sum of moments
        Total    : (-55.1858 30.4052 -13.8033)
        Pressure : (-59.4212 5.40903 -13.9325)
        Viscous  : (4.23546 24.9961 0.129208)
    writing force and moment files.

Time = 21

smoothSolver:  Solving for Ux, Initial residual = 0.00057155, Final residual = 2.08528e-05, No Iterations 2
smoothSolver:  Solving for Uy, Initial residual = 0.000475564, Final residual = 1.62776e-05, No Iterations 2
GAMG:  Solving for p, Initial residual = 0.00178271, Final residual = 1.71311e-05, No Iterations 42
GAMG:  Solving for p, Initial residual = 0.000124164, Final residual = 1.2314e-06, No Iterations 60
time step continuity errors : sum local = 6.72083e-08, global = 2.46325e-08, cumulative = -3.14911e-05
smoothSolver:  Solving for nuTilda, Initial residual = 0.000414214, Final residual = 1.10983e-05, No Iterations 2
ExecutionTime = 1.71 s  ClockTime = 2 s

forceCoeffs forceCoeffs write:
    Coefficient	Total	Pressure	Viscous	Internal
    Cd:	0.110692	0.0209652	0.0897264	0
    Cd(f):	-0.0511882	-0.103653	0.0524651	0
    Cd(r):	0.16188	0.124619	0.0372613	0
    Cl:	0.213068	0.228272	-0.0152038	0
    Cl(f):	0.129266	0.137093	-0.00782683	0
    Cl(r):	0.0838024	0.0911794	-0.00737699	0
    CmPitch:	0.0227317	0.0229566	-0.00022492	0
    CmRoll:	-0.106534	-0.114136	0.00760191	0
    CmYaw:	0.0553458	0.0104826	0.0448632	0
    Cs:	-2.92982e-23	-1.93788e-22	1.6449e-22	0
    Cs(f):	0.0553458	0.0104826	0.0448632	0
    Cs(r):	-0.0553458	-0.0104826	-0.0448632	0

    writing force and moment coefficient files.

forces forces write:
    Sum of forces
        Total    : (59.4024 114.343 1.57228e-20)
        Pressure : (11.2509 122.502 1.03996e-19)
        Viscous  : (48.1515 -8.1591 -8.82732e-20)
    Sum of moments
        Total    : (-57.1713 29.7012 -12.1989)
        Pressure : (-61.2508 5.62546 -12.3196)
        Viscous  : (4.07955 24.0758 0.120703)
    writing force and moment files.

Time = 22

smoothSolver:  Solving for Ux, Initial residual = 0.000561068, Final residual = 2.04605e-05, No Iterations 2
smoothSolver:  Solving for Uy, Initial residual = 0.000475209, Final residual = 1.62435e-05, No Iterations 2
GAMG:  Solving for p, Initial residual = 0.00173531, Final residual = 1.71571e-05, No Iterations 42
GAMG:  Solving for p, Initial residual = 0.000122459, Final residual = 1.21988e-06, No Iterations 60
time step continuity errors : sum local = 6.6673e-08, global = 2.44301e-08, cumulative = -3.14667e-05
smoothSolver:  Solving for nuTilda, Initial residual = 0.000386454, Final residual = 1.03032e-05, No Iterations 2
ExecutionTime = 1.8 s  ClockTime = 2 s

forceCoeffs forceCoeffs write:
    Coefficient	Total	Pressure	Viscous	Internal
    Cd:	0.108343	0.02175	0.086593	0
    Cd(f):	-0.0560008	-0.106634	0.0506329	0
    Cd(r):	0.164344	0.128384	0.0359601	0
    Cl:	0.220345	0.235017	-0.0146729	0
    Cl(f):	0.129949	0.137496	-0.00754739	0
    Cl(r):	0.0903957	0.0975212	-0.00712549	0
    CmPitch:	0.0197765	0.0199875	-0.000210951	0
    CmRoll:	-0.110172	-0.117509	0.00733644	0
    CmYaw:	0.0541715	0.010875	0.0432965	0
    Cs:	-2.53847e-23	-1.90154e-22	1.6477e-22	0
    Cs(f):	0.0541715	0.010875	0.0432965	0
    Cs(r):	-0.0541715	-0.010875	-0.0432965	0

    writing force and moment coefficient files.

forces forces write:
    Sum of forces
        Total    : (58.142 118.247 1.36226e-20)
        Pressure : (11.6721 126.122 1.02046e-19)
        Viscous  : (46.47 -7.87417 -8.84234e-20)
    Sum of moments
        Total    : (-59.1237 29.071 -10.613)
        Pressure : (-63.0608 5.83605 -10.7263)
        Viscous  : (3.93709 23.235 0.113207)
    writing force and moment files.

Time = 23

smoothSolver:  Solving for Ux, Initial residual = 0.000551195, Final residual = 2.00901e-05, No Iterations 2
smoothSolver:  Solving for Uy, Initial residual = 0.000474802, Final residual = 1.6206e-05, No Iterations 2
GAMG:  Solving for p, Initial residual = 0.00168335, Final residual = 1.66472e-05, No Iterations 42
GAMG:  Solving for p, Initial residual = 0.000120316, Final residual = 1.18951e-06, No Iterations 60
time step continuity errors : sum local = 6.5133e-08, global = 2.38321e-08, cumulative = -3.14428e-05
smoothSolver:  Solving for nuTilda, Initial residual = 0.000365473, Final residual = 9.69378e-06, No Iterations 2
ExecutionTime = 1.88 s  ClockTime = 2 s

forceCoeffs forceCoeffs write:
    Coefficient	Total	Pressure	Viscous	Internal
    Cd:	0.10623	0.0225137	0.0837167	0
    Cd(f):	-0.0606372	-0.109588	0.048951	0
    Cd(r):	0.166868	0.132102	0.0347657	0
    Cl:	0.227505	0.24169	-0.0141854	0
    Cl(f):	0.130608	0.137899	-0.00729125	0
    Cl(r):	0.0968966	0.103791	-0.00689412	0
    CmPitch:	0.0168558	0.0170543	-0.000198564	0
    CmRoll:	-0.113752	-0.120845	0.00709269	0
    CmYaw:	0.0531152	0.0112568	0.0418584	0
    Cs:	-2.17643e-23	-1.86825e-22	1.6506e-22	0
    Cs(f):	0.0531152	0.0112568	0.0418584	0
    Cs(r):	-0.0531152	-0.0112568	-0.0418584	0

    writing force and moment coefficient files.

forces forces write:
    Sum of forces
        Total    : (57.0083 122.09 1.16798e-20)
        Pressure : (12.0819 129.702 1.00259e-19)
        Viscous  : (44.9264 -7.61255 -8.85793e-20)
    Sum of moments
        Total    : (-61.045 28.5042 -9.04561)
        Pressure : (-64.8512 6.04095 -9.15217)
        Viscous  : (3.80628 22.4632 0.106559)
    writing force and moment files.

Time = 24

smoothSolver:  Solving for Ux, Initial residual = 0.000541736, Final residual = 1.97305e-05, No Iterations 2
smoothSolver:  Solving for Uy, Initial residual = 0.000474411, Final residual = 1.61699e-05, No Iterations 2
GAMG:  Solving for p, Initial residual = 0.00163241, Final residual = 1.55122e-05, No Iterations 42
GAMG:  Solving for p, Initial residual = 0.000117638, Final residual = 1.13857e-06, No Iterations 60
time step continuity errors : sum local = 6.24721e-08, global = 2.27954e-08, cumulative = -3.142e-05
smoothSolver:  Solving for nuTilda, Initial residual = 0.000348706, Final residual = 9.20447e-06, No Iterations 2
ExecutionTime = 1.95 s  ClockTime = 2 s

forceCoeffs forceCoeffs write:
    Coefficient	Total	Pressure	Viscous	Internal
    Cd:	0.104322	0.0232572	0.081065	0
    Cd(f):	-0.0651154	-0.112516	0.0474004	0
    Cd(r):	0.169438	0.135773	0.0336646	0
    Cl:	0.234553	0.248289	-0.0137358	0
    Cl(f):	0.131245	0.138301	-0.00705541	0
    Cl(r):	0.103308	0.109988	-0.00668038	0
    CmPitch:	0.013969	0.0141565	-0.000187514	0
    CmRoll:	-0.117276	-0.124144	0.00686789	0
    CmYaw:	0.0521611	0.0116286	0.0405325	0
    Cs:	-1.83757e-23	-1.83733e-22	1.65358e-22	0
    Cs(f):	0.0521611	0.0116286	0.0405325	0
    Cs(r):	-0.0521611	-0.0116286	-0.0405325	0

    writing force and moment coefficient files.

forces forces write:
    Sum of forces
        Total    : (55.9843 125.872 9.86127e-21)
        Pressure : (12.481 133.244 9.86001e-20)
        Viscous  : (43.5034 -7.37128 -8.87388e-20)
    Sum of moments
        Total    : (-62.9362 27.9922 -7.49642)
        Pressure : (-66.6218 6.24048 -7.59705)
        Viscous  : (3.68564 21.7517 0.100629)
    writing force and moment files.

Time = 25

smoothSolver:  Solving for Ux, Initial residual = 0.000532775, Final residual = 1.93873e-05, No Iterations 2
smoothSolver:  Solving for Uy, Initial residual = 0.000473973, Final residual = 1.61289e-05, No Iterations 2
GAMG:  Solving for p, Initial residual = 0.0015913, Final residual = 1.46463e-05, No Iterations 41
GAMG:  Solving for p, Initial residual = 0.000114914, Final residual = 1.09818e-06, No Iterations 60
time step continuity errors : sum local = 6.03827e-08, global = 2.19657e-08, cumulative = -3.13981e-05
smoothSolver:  Solving for nuTilda, Initial residual = 0.000331513, Final residual = 8.69972e-06, No Iterations 2
ExecutionTime = 2.02 s  ClockTime = 2 s

forceCoeffs forceCoeffs write:
    Coefficient	Total	Pressure	Viscous	Internal
    Cd:	0.102592	0.0239811	0.0786104	0
    Cd(f):	-0.0694507	-0.115416	0.045965	0
    Cd(r):	0.172042	0.139397	0.0326455	0
    Cl:	0.241493	0.254812	-0.0133195	0
    Cl(f):	0.131863	0.138701	-0.00683736	0
    Cl(r):	0.10963	0.116112	-0.00648214	0
    CmPitch:	0.0111167	0.0112943	-0.000177607	0
    CmRoll:	-0.120746	-0.127406	0.00665975	0
    CmYaw:	0.0512958	0.0119905	0.0393052	0
    Cs:	-1.52181e-23	-1.80863e-22	1.65645e-22	0
    Cs(f):	0.0512958	0.0119905	0.0393052	0
    Cs(r):	-0.0512958	-0.0119905	-0.0393052	0

    writing force and moment coefficient files.

forces forces write:
    Sum of forces
        Total    : (55.0555 129.597 8.16677e-21)
        Pressure : (12.8694 136.745 9.70599e-20)
        Viscous  : (42.1861 -7.14788 -8.88932e-20)
    Sum of moments
        Total    : (-64.7984 27.5278 -5.96575)
        Pressure : (-68.3723 6.4347 -6.06106)
        Viscous  : (3.57394 21.0931 0.0953126)
    writing force and moment files.

Time = 26

smoothSolver:  Solving for Ux, Initial residual = 0.000524372, Final residual = 1.90606e-05, No Iterations 2
smoothSolver:  Solving for Uy, Initial residual = 0.000473637, Final residual = 1.60945e-05, No Iterations 2
GAMG:  Solving for p, Initial residual = 0.00152498, Final residual = 1.51008e-05, No Iterations 43
GAMG:  Solving for p, Initial residual = 0.00011292, Final residual = 1.10859e-06, No Iterations 60
time step continuity errors : sum local = 6.10833e-08, global = 2.21975e-08, cumulative = -3.13759e-05
smoothSolver:  Solving for nuTilda, Initial residual = 0.000314604, Final residual = 8.20132e-06, No Iterations 2
ExecutionTime = 2.1 s  ClockTime = 2 s

forceCoeffs forceCoeffs write:
    Coefficient	Total	Pressure	Viscous	Internal
    Cd:	0.101016	0.0246857	0.0763302	0
    Cd(f):	-0.0736559	-0.118287	0.0446314	0
    Cd(r):	0.174672	0.142973	0.0316988	0
    Cl:	0.248328	0.26126	-0.0129326	0
    Cl(f):	0.132463	0.139098	-0.00663501	0
    Cl(r):	0.115865	0.122162	-0.00629764	0
    CmPitch:	0.00829897	0.00846765	-0.00016868	0
    CmRoll:	-0.124164	-0.13063	0.00646632	0
    CmYaw:	0.0505079	0.0123428	0.0381651	0
    Cs:	-1.22649e-23	-1.78196e-22	1.65931e-22	0
    Cs(f):	0.0505079	0.0123428	0.0381651	0
    Cs(r):	-0.0505079	-0.0123428	-0.0381651	0

    writing force and moment coefficient files.

forces forces write:
    Sum of forces
        Total    : (54.21 133.264 6.58191e-21)
        Pressure : (13.2475 140.205 9.56285e-20)
        Viscous  : (40.9624 -6.94028 -8.90466e-20)
    Sum of moments
        Total    : (-66.6322 27.105 -4.45362)
        Pressure : (-70.1024 6.62376 -4.54415)
        Viscous  : (3.47014 20.4812 0.090522)
    writing force and moment files.

Time = 27

smoothSolver:  Solving for Ux, Initial residual = 0.000516435, Final residual = 1.87467e-05, No Iterations 2
smoothSolver:  Solving for Uy, Initial residual = 0.000473304, Final residual = 1.60603e-05, No Iterations 2
GAMG:  Solving for p, Initial residual = 0.00150653, Final residual = 1.38733e-05, No Iterations 45
GAMG:  Solving for p, Initial residual = 0.000110138, Final residual = 1.05803e-06, No Iterations 60
time step continuity errors : sum local = 5.84209e-08, global = 2.11869e-08, cumulative = -3.13547e-05
smoothSolver:  Solving for nuTilda, Initial residual = 0.000301358, Final residual = 7.80565e-06, No Iterations 2
ExecutionTime = 2.17 s  ClockTime = 2 s

forceCoeffs forceCoeffs write:
    Coefficient	Total	Pressure	Viscous	Internal
    Cd:	0.0995763	0.0253715	0.0742047	0
    Cd(f):	-0.077742	-0.12113	0.0433883	0
    Cd(r):	0.177318	0.146502	0.0308164	0
    Cl:	0.25506	0.267632	-0.0125719	0
    Cl(f):	0.133045	0.139492	-0.00644657	0
    Cl(r):	0.122015	0.12814	-0.00612537	0
    CmPitch:	0.005515	0.0056756	-0.0001606	0
    CmRoll:	-0.12753	-0.133816	0.00628597	0
    CmYaw:	0.0497881	0.0126858	0.0371024	0
    Cs:	-9.49648e-24	-1.75706e-22	1.6621e-22	0
    Cs(f):	0.0497881	0.0126858	0.0371024	0
    Cs(r):	-0.0497881	-0.0126858	-0.0371024	0

    writing force and moment coefficient files.

forces forces write:
    Sum of forces
        Total    : (53.4374 136.878 5.09626e-21)
        Pressure : (13.6156 143.624 9.42923e-20)
        Viscous  : (39.8218 -6.74671 -8.91961e-20)
    Sum of moments
        Total    : (-68.4388 26.7187 -2.95961)
        Pressure : (-71.8121 6.80779 -3.0458)
        Viscous  : (3.37335 19.9109 0.0861858)
    writing force and moment files.

Time = 28

smoothSolver:  Solving for Ux, Initial residual = 0.00050899, Final residual = 1.84526e-05, No Iterations 2
smoothSolver:  Solving for Uy, Initial residual = 0.000472997, Final residual = 1.60255e-05, No Iterations 2
GAMG:  Solving for p, Initial residual = 0.00145421, Final residual = 1.38121e-05, No Iterations 45
GAMG:  Solving for p, Initial residual = 0.000108256, Final residual = 1.04774e-06, No Iterations 60
time step continuity errors : sum local = 5.79718e-08, global = 2.09837e-08, cumulative = -3.13337e-05
smoothSolver:  Solving for nuTilda, Initial residual = 0.00029048, Final residual = 7.47844e-06, No Iterations 2
ExecutionTime = 2.25 s  ClockTime = 2 s

forceCoeffs forceCoeffs write:
    Coefficient	Total	Pressure	Viscous	Internal
    Cd:	0.0982549	0.0260374	0.0722175	0
    Cd(f):	-0.0817171	-0.123943	0.0422261	0
    Cd(r):	0.179972	0.149981	0.0299915	0
    Cl:	0.261689	0.273924	-0.0122346	0
    Cl(f):	0.133612	0.139883	-0.00627054	0
    Cl(r):	0.128077	0.134041	-0.00596403	0
    CmPitch:	0.00276775	0.002921	-0.000153255	0
    CmRoll:	-0.130845	-0.136962	0.00611729	0
    CmYaw:	0.0491275	0.0130187	0.0361088	0
    Cs:	-6.95589e-24	-1.73446e-22	1.6649e-22	0
    Cs(f):	0.0491275	0.0130187	0.0361088	0
    Cs(r):	-0.0491275	-0.0130187	-0.0361088	0

    writing force and moment coefficient files.

forces forces write:
    Sum of forces
        Total    : (52.7283 140.435 3.73286e-21)
        Pressure : (13.9729 147.001 9.30794e-20)
        Viscous  : (38.7554 -6.56566 -8.93465e-20)
    Sum of moments
        Total    : (-70.2175 26.3642 -1.48531)
        Pressure : (-73.5003 6.98645 -1.56755)
        Viscous  : (3.28283 19.3777 0.0822441)
    writing force and moment files.

Time = 29

smoothSolver:  Solving for Ux, Initial residual = 0.000501857, Final residual = 1.81665e-05, No Iterations 2
smoothSolver:  Solving for Uy, Initial residual = 0.000472769, Final residual = 1.59976e-05, No Iterations 2
GAMG:  Solving for p, Initial residual = 0.00141162, Final residual = 1.378e-05, No Iterations 45
GAMG:  Solving for p, Initial residual = 0.000106328, Final residual = 1.03962e-06, No Iterations 60
time step continuity errors : sum local = 5.76402e-08, global = 2.08248e-08, cumulative = -3.13129e-05
smoothSolver:  Solving for nuTilda, Initial residual = 0.000279359, Final residual = 7.1453e-06, No Iterations 2
ExecutionTime = 2.32 s  ClockTime = 2 s

forceCoeffs forceCoeffs write:
    Coefficient	Total	Pressure	Viscous	Internal
    Cd:	0.0970382	0.0266838	0.0703544	0
    Cd(f):	-0.085589	-0.126725	0.0411363	0
    Cd(r):	0.182627	0.153409	0.0292181	0
    Cl:	0.268216	0.280134	-0.0119182	0
    Cl(f):	0.134164	0.14027	-0.00610563	0
    Cl(r):	0.134052	0.139864	-0.00581253	0
    CmPitch:	5.62175e-05	0.00020277	-0.000146552	0
    CmRoll:	-0.134108	-0.140067	0.00595908	0
    CmYaw:	0.0485191	0.0133419	0.0351772	0
    Cs:	-4.60461e-24	-1.71359e-22	1.66754e-22	0
    Cs(f):	0.0485191	0.0133419	0.0351772	0
    Cs(r):	-0.0485191	-0.0133419	-0.0351772	0

    writing force and moment coefficient files.

forces forces write:
    Sum of forces
        Total    : (52.0754 143.938 2.47105e-21)
        Pressure : (14.3198 150.334 9.19593e-20)
        Viscous  : (37.7555 -6.39586 -8.94883e-20)
    Sum of moments
        Total    : (-71.9689 26.0377 -0.030169)
        Pressure : (-75.1668 7.15991 -0.108816)
        Viscous  : (3.19793 18.8778 0.078647)
    writing force and moment files.

Time = 30

smoothSolver:  Solving for Ux, Initial residual = 0.000495119, Final residual = 1.78931e-05, No Iterations 2
smoothSolver:  Solving for Uy, Initial residual = 0.000472535, Final residual = 1.59682e-05, No Iterations 2
GAMG:  Solving for p, Initial residual = 0.00140657, Final residual = 1.38586e-05, No Iterations 45
GAMG:  Solving for p, Initial residual = 0.000104486, Final residual = 1.03553e-06, No Iterations 60
time step continuity errors : sum local = 5.75297e-08, global = 2.07501e-08, cumulative = -3.12921e-05
smoothSolver:  Solving for nuTilda, Initial residual = 0.000267999, Final residual = 6.79813e-06, No Iterations 2
ExecutionTime = 2.41 s  ClockTime = 2 s

forceCoeffs forceCoeffs write:
    Coefficient	Total	Pressure	Viscous	Internal
    Cd:	0.095914	0.027311	0.068603	0
    Cd(f):	-0.0893641	-0.129476	0.0401118	0
    Cd(r):	0.185278	0.156787	0.0284912	0
    Cl:	0.274642	0.286263	-0.0116206	0
    Cl(f):	0.134702	0.140653	-0.00595072	0
    Cl(r):	0.13994	0.14561	-0.0056699	0
    CmPitch:	-0.00261887	-0.00247846	-0.000140413	0
    CmRoll:	-0.137321	-0.143131	0.00581031	0
    CmYaw:	0.047957	0.0136555	0.0343015	0
    Cs:	-2.46958e-24	-1.69496e-22	1.67026e-22	0
    Cs(f):	0.047957	0.0136555	0.0343015	0
    Cs(r):	-0.047957	-0.0136555	-0.0343015	0

    writing force and moment coefficient files.

forces forces write:
    Sum of forces
        Total    : (51.4721 147.386 1.32529e-21)
        Pressure : (14.6564 153.622 9.09596e-20)
        Viscous  : (36.8157 -6.23618 -8.96343e-20)
    Sum of moments
        Total    : (-73.6931 25.736 1.40541)
        Pressure : (-76.8112 7.3282 1.33006)
        Viscous  : (3.11809 18.4078 0.0753525)
    writing force and moment files.

Time = 31

smoothSolver:  Solving for Ux, Initial residual = 0.000488725, Final residual = 1.76316e-05, No Iterations 2
smoothSolver:  Solving for Uy, Initial residual = 0.000472387, Final residual = 1.59458e-05, No Iterations 2
GAMG:  Solving for p, Initial residual = 0.00134761, Final residual = 1.23599e-05, No Iterations 47
GAMG:  Solving for p, Initial residual = 0.000101486, Final residual = 9.71947e-07, No Iterations 60
time step continuity errors : sum local = 5.41097e-08, global = 1.95006e-08, cumulative = -3.12726e-05
smoothSolver:  Solving for nuTilda, Initial residual = 0.000259205, Final residual = 6.527e-06, No Iterations 2
ExecutionTime = 2.48 s  ClockTime = 2 s

forceCoeffs forceCoeffs write:
    Coefficient	Total	Pressure	Viscous	Internal
    Cd:	0.0948718	0.0279191	0.0669527	0
    Cd(f):	-0.0930481	-0.132194	0.0391464	0
    Cd(r):	0.18792	0.160114	0.0278063	0
    Cl:	0.280968	0.292308	-0.0113402	0
    Cl(f):	0.135227	0.141032	-0.00580485	0
    Cl(r):	0.145741	0.151276	-0.00553531	0
    CmPitch:	-0.00525701	-0.00512224	-0.000134771	0
    CmRoll:	-0.140484	-0.146154	0.00567008	0
    CmYaw:	0.0474359	0.0139596	0.0334763	0
    Cs:	-4.48103e-25	-1.67739e-22	1.67291e-22	0
    Cs(f):	0.0474359	0.0139596	0.0334763	0
    Cs(r):	-0.0474359	-0.0139596	-0.0334763	0

    writing force and moment coefficient files.

forces forces write:
    Sum of forces
        Total    : (50.9128 150.781 2.40473e-22)
        Pressure : (14.9827 156.867 9.00167e-20)
        Viscous  : (35.93 -6.08567 -8.97762e-20)
    Sum of moments
        Total    : (-75.3904 25.4564 2.82117)
        Pressure : (-78.4333 7.49137 2.74884)
        Viscous  : (3.04284 17.965 0.0723246)
    writing force and moment files.

Time = 32

smoothSolver:  Solving for Ux, Initial residual = 0.000482597, Final residual = 1.73758e-05, No Iterations 2
smoothSolver:  Solving for Uy, Initial residual = 0.000472265, Final residual = 1.59257e-05, No Iterations 2
GAMG:  Solving for p, Initial residual = 0.00134081, Final residual = 1.22492e-05, No Iterations 47
GAMG:  Solving for p, Initial residual = 9.93571e-05, Final residual = 9.58439e-07, No Iterations 60
time step continuity errors : sum local = 5.34647e-08, global = 1.92399e-08, cumulative = -3.12534e-05
smoothSolver:  Solving for nuTilda, Initial residual = 0.000252112, Final residual = 6.30527e-06, No Iterations 2
ExecutionTime = 2.56 s  ClockTime = 2 s

forceCoeffs forceCoeffs write:
    Coefficient	Total	Pressure	Viscous	Internal
    Cd:	0.0939027	0.0285085	0.0653942	0
    Cd(f):	-0.0966447	-0.134879	0.0382347	0
    Cd(r):	0.190547	0.163388	0.0271595	0
    Cl:	0.287192	0.298267	-0.0110752	0
    Cl(f):	0.135738	0.141405	-0.00566717	0
    Cl(r):	0.151454	0.156862	-0.00540803	0
    CmPitch:	-0.00785807	-0.0077285	-0.000129567	0
    CmRoll:	-0.143596	-0.149134	0.0055376	0
    CmYaw:	0.0469514	0.0142543	0.0326971	0
    Cs:	1.46291e-24	-1.66103e-22	1.67566e-22	0
    Cs(f):	0.0469514	0.0142543	0.0326971	0
    Cs(r):	-0.0469514	-0.0142543	-0.0326971	0

    writing force and moment coefficient files.

forces forces write:
    Sum of forces
        Total    : (50.3927 154.121 -7.85066e-22)
        Pressure : (15.299 160.065 8.91387e-20)
        Viscous  : (35.0937 -5.94349 -8.99238e-20)
    Sum of moments
        Total    : (-77.0605 25.1963 4.21702)
        Pressure : (-80.0323 7.64952 4.14749)
        Viscous  : (2.97174 17.5468 0.069532)
    writing force and moment files.

Time = 33

smoothSolver:  Solving for Ux, Initial residual = 0.000476774, Final residual = 1.71326e-05, No Iterations 2
smoothSolver:  Solving for Uy, Initial residual = 0.000472205, Final residual = 1.59082e-05, No Iterations 2
GAMG:  Solving for p, Initial residual = 0.00130815, Final residual = 1.22448e-05, No Iterations 47
GAMG:  Solving for p, Initial residual = 9.7389e-05, Final residual = 9.50306e-07, No Iterations 60
time step continuity errors : sum local = 5.31161e-08, global = 1.9081e-08, cumulative = -3.12343e-05
smoothSolver:  Solving for nuTilda, Initial residual = 0.000245206, Final residual = 6.08653e-06, No Iterations 2
ExecutionTime = 2.64 s  ClockTime = 2 s

forceCoeffs forceCoeffs write:
    Coefficient	Total	Pressure	Viscous	Internal
    Cd:	0.0929994	0.0290801	0.0639194	0
    Cd(f):	-0.100159	-0.137531	0.0373719	0
    Cd(r):	0.193159	0.166611	0.0265475	0
    Cl:	0.293318	0.304143	-0.0108244	0
    Cl(f):	0.136236	0.141773	-0.00553695	0
    Cl(r):	0.157082	0.162369	-0.00528743	0
    CmPitch:	-0.0104227	-0.010298	-0.000124758	0
    CmRoll:	-0.146659	-0.152071	0.00541219	0
    CmYaw:	0.0464997	0.01454	0.0319597	0
    Cs:	3.15073e-24	-1.64705e-22	1.67856e-22	0
    Cs(f):	0.0464997	0.01454	0.0319597	0
    Cs(r):	-0.0464997	-0.01454	-0.0319597	0

    writing force and moment coefficient files.

forces forces write:
    Sum of forces
        Total    : (49.908 157.409 -1.69083e-21)
        Pressure : (15.6058 163.218 8.83886e-20)
        Viscous  : (34.3022 -5.80888 -9.00794e-20)
    Sum of moments
        Total    : (-78.7043 24.954 5.59334)
        Pressure : (-81.6088 7.80288 5.52639)
        Viscous  : (2.90444 17.1511 0.0669509)
    writing force and moment files.

Time = 34

smoothSolver:  Solving for Ux, Initial residual = 0.000471132, Final residual = 1.6895e-05, No Iterations 2
smoothSolver:  Solving for Uy, Initial residual = 0.000472163, Final residual = 1.58949e-05, No Iterations 2
GAMG:  Solving for p, Initial residual = 0.0012973, Final residual = 1.21473e-05, No Iterations 47
GAMG:  Solving for p, Initial residual = 9.56905e-05, Final residual = 9.38293e-07, No Iterations 60
time step continuity errors : sum local = 5.25505e-08, global = 1.88456e-08, cumulative = -3.12155e-05
smoothSolver:  Solving for nuTilda, Initial residual = 0.000237638, Final residual = 5.8479e-06, No Iterations 2
ExecutionTime = 2.71 s  ClockTime = 3 s

forceCoeffs forceCoeffs write:
    Coefficient	Total	Pressure	Viscous	Internal
    Cd:	0.0921545	0.0296335	0.062521	0
    Cd(f):	-0.103596	-0.14015	0.0365538	0
    Cd(r):	0.19575	0.169783	0.0259673	0
    Cl:	0.299346	0.309933	-0.0105865	0
    Cl(f):	0.136723	0.142136	-0.00541354	0
    Cl(r):	0.162624	0.167797	-0.00517294	0
    CmPitch:	-0.0129506	-0.0128303	-0.000120302	0
    CmRoll:	-0.149673	-0.154966	0.00529324	0
    CmYaw:	0.0460773	0.0148167	0.0312605	0
    Cs:	4.54725e-24	-1.63628e-22	1.68175e-22	0
    Cs(f):	0.0460773	0.0148167	0.0312605	0
    Cs(r):	-0.0460773	-0.0148167	-0.0312605	0

    writing force and moment coefficient files.

forces forces write:
    Sum of forces
        Total    : (49.4545 160.644 -2.44027e-21)
        Pressure : (15.9027 166.325 8.78104e-20)
        Viscous  : (33.5518 -5.68121 -9.02507e-20)
    Sum of moments
        Total    : (-80.3218 24.7273 6.9499)
        Pressure : (-83.1624 7.95137 6.88534)
        Viscous  : (2.84061 16.7759 0.0645597)
    writing force and moment files.

Time = 35

smoothSolver:  Solving for Ux, Initial residual = 0.000465719, Final residual = 1.66623e-05, No Iterations 2
smoothSolver:  Solving for Uy, Initial residual = 0.000472142, Final residual = 1.58821e-05, No Iterations 2
GAMG:  Solving for p, Initial residual = 0.00128399, Final residual = 1.20118e-05, No Iterations 47
GAMG:  Solving for p, Initial residual = 9.38742e-05, Final residual = 9.24212e-07, No Iterations 60
time step continuity errors : sum local = 5.18693e-08, global = 1.85698e-08, cumulative = -3.11969e-05
smoothSolver:  Solving for nuTilda, Initial residual = 0.000231569, Final residual = 5.65127e-06, No Iterations 2
ExecutionTime = 2.79 s  ClockTime = 3 s

forceCoeffs forceCoeffs write:
    Coefficient	Total	Pressure	Viscous	Internal
    Cd:	0.0913622	0.0301693	0.0611929	0
    Cd(f):	-0.106958	-0.142734	0.0357766	0
    Cd(r):	0.19832	0.172904	0.0254162	0
    Cl:	0.305277	0.315638	-0.0103604	0
    Cl(f):	0.137196	0.142493	-0.00529637	0
    Cl(r):	0.168081	0.173145	-0.00506405	0
    CmPitch:	-0.0154422	-0.015326	-0.000116163	0
    CmRoll:	-0.152639	-0.157819	0.00518021	0
    CmYaw:	0.0456811	0.0150847	0.0305964	0
    Cs:	5.60753e-24	-1.62907e-22	1.68515e-22	0
    Cs(f):	0.0456811	0.0150847	0.0305964	0
    Cs(r):	-0.0456811	-0.0150847	-0.0305964	0

    writing force and moment coefficient files.

forces forces write:
    Sum of forces
        Total    : (49.0293 163.826 -3.00927e-21)
        Pressure : (16.1903 169.386 8.74238e-20)
        Viscous  : (32.839 -5.5599 -9.04331e-20)
    Sum of moments
        Total    : (-81.9132 24.5147 8.28702)
        Pressure : (-84.6932 8.09516 8.22468)
        Viscous  : (2.77995 16.4195 0.0623387)
    writing force and moment files.

Time = 36

smoothSolver:  Solving for Ux, Initial residual = 0.00046053, Final residual = 1.6439e-05, No Iterations 2
smoothSolver:  Solving for Uy, Initial residual = 0.000472131, Final residual = 1.58712e-05, No Iterations 2
GAMG:  Solving for p, Initial residual = 0.00126827, Final residual = 1.19101e-05, No Iterations 47
GAMG:  Solving for p, Initial residual = 9.19122e-05, Final residual = 9.11067e-07, No Iterations 60
time step continuity errors : sum local = 5.12406e-08, global = 1.83154e-08, cumulative = -3.11786e-05
smoothSolver:  Solving for nuTilda, Initial residual = 0.000226872, Final residual = 5.49521e-06, No Iterations 2
ExecutionTime = 2.87 s  ClockTime = 3 s

forceCoeffs forceCoeffs write:
    Coefficient	Total	Pressure	Viscous	Internal
    Cd:	0.0906168	0.0306876	0.0599292	0
    Cd(f):	-0.110247	-0.145284	0.0350373	0
    Cd(r):	0.200864	0.175972	0.024892	0
    Cl:	0.311111	0.321256	-0.0101453	0
    Cl(f):	0.137659	0.142844	-0.00518494	0
    Cl(r):	0.173452	0.178412	-0.00496033	0
    CmPitch:	-0.0178965	-0.0177842	-0.000112306	0
    CmRoll:	-0.155556	-0.160628	0.00507264	0
    CmYaw:	0.0453084	0.0153438	0.0299646	0
    Cs:	6.28712e-24	-1.62598e-22	1.68885e-22	0
    Cs(f):	0.0453084	0.0153438	0.0299646	0
    Cs(r):	-0.0453084	-0.0153438	-0.0299646	0

    writing force and moment coefficient files.

forces forces write:
    Sum of forces
        Total    : (48.6293 166.957 -3.37397e-21)
        Pressure : (16.4684 172.402 8.72581e-20)
        Viscous  : (32.1609 -5.44444 -9.06321e-20)
    Sum of moments
        Total    : (-83.4786 24.3147 9.60411)
        Pressure : (-86.2008 8.23422 9.54384)
        Viscous  : (2.72222 16.0805 0.0602686)
    writing force and moment files.

Time = 37

smoothSolver:  Solving for Ux, Initial residual = 0.000455515, Final residual = 1.62178e-05, No Iterations 2
smoothSolver:  Solving for Uy, Initial residual = 0.000472127, Final residual = 1.58635e-05, No Iterations 2
GAMG:  Solving for p, Initial residual = 0.00126878, Final residual = 1.18081e-05, No Iterations 47
GAMG:  Solving for p, Initial residual = 9.03023e-05, Final residual = 8.98211e-07, No Iterations 60
time step continuity errors : sum local = 5.06274e-08, global = 1.80708e-08, cumulative = -3.11605e-05
smoothSolver:  Solving for nuTilda, Initial residual = 0.000223043, Final residual = 5.36247e-06, No Iterations 2
ExecutionTime = 2.94 s  ClockTime = 3 s

forceCoeffs forceCoeffs write:
    Coefficient	Total	Pressure	Viscous	Internal
    Cd:	0.089914	0.0311889	0.0587251	0
    Cd(f):	-0.113468	-0.1478	0.0343326	0
    Cd(r):	0.203381	0.178989	0.0243925	0
    Cl:	0.316849	0.326789	-0.00994018	0
    Cl(f):	0.13811	0.143189	-0.00507879	0
    Cl(r):	0.178739	0.1836	-0.00486138	0
    CmPitch:	-0.0203143	-0.0202056	-0.000108703	0
    CmRoll:	-0.158425	-0.163395	0.00497009	0
    CmYaw:	0.044957	0.0155944	0.0293626	0
    Cs:	6.57314e-24	-1.62709e-22	1.69282e-22	0
    Cs(f):	0.044957	0.0155944	0.0293626	0
    Cs(r):	-0.044957	-0.0155944	-0.0293626	0

    writing force and moment coefficient files.

forces forces write:
    Sum of forces
        Total    : (48.2522 170.036 -3.52746e-21)
        Pressure : (16.7374 175.371 8.73173e-20)
        Viscous  : (31.5147 -5.33438 -9.08448e-20)
    Sum of moments
        Total    : (-85.0182 24.1261 10.9016)
        Pressure : (-87.6854 8.36872 10.8433)
        Viscous  : (2.66719 15.7574 0.0583354)
    writing force and moment files.

Time = 38

smoothSolver:  Solving for Ux, Initial residual = 0.000450657, Final residual = 1.60036e-05, No Iterations 2
smoothSolver:  Solving for Uy, Initial residual = 0.000472145, Final residual = 1.58563e-05, No Iterations 2
GAMG:  Solving for p, Initial residual = 0.00126029, Final residual = 1.16512e-05, No Iterations 47
GAMG:  Solving for p, Initial residual = 8.85076e-05, Final residual = 8.82986e-07, No Iterations 60
time step continuity errors : sum local = 4.98791e-08, global = 1.77772e-08, cumulative = -3.11427e-05
smoothSolver:  Solving for nuTilda, Initial residual = 0.000218573, Final residual = 5.20927e-06, No Iterations 2
ExecutionTime = 3.03 s  ClockTime = 3 s

forceCoeffs forceCoeffs write:
    Coefficient	Total	Pressure	Viscous	Internal
    Cd:	0.0892497	0.0316737	0.057576	0
    Cd(f):	-0.116621	-0.150281	0.0336602	0
    Cd(r):	0.205871	0.181955	0.0239158	0
    Cl:	0.322492	0.332236	-0.00974437	0
    Cl(f):	0.13855	0.143527	-0.00497752	0
    Cl(r):	0.183942	0.188709	-0.00476685	0
    CmPitch:	-0.022696	-0.0225907	-0.000105334	0
    CmRoll:	-0.161246	-0.166118	0.00487219	0
    CmYaw:	0.0446249	0.0158368	0.028788	0
    Cs:	6.49457e-24	-1.63227e-22	1.69721e-22	0
    Cs(f):	0.0446249	0.0158368	0.028788	0
    Cs(r):	-0.0446249	-0.0158368	-0.028788	0

    writing force and moment coefficient files.

forces forces write:
    Sum of forces
        Total    : (47.8957 173.065 -3.4853e-21)
        Pressure : (16.9976 178.294 8.75954e-20)
        Viscous  : (30.8981 -5.2293 -9.10807e-20)
    Sum of moments
        Total    : (-86.5323 23.9478 12.1798)
        Pressure : (-89.147 8.49881 12.1232)
        Viscous  : (2.61465 15.449 0.0565274)
    writing force and moment files.

Time = 39

smoothSolver:  Solving for Ux, Initial residual = 0.000445937, Final residual = 1.57951e-05, No Iterations 2
smoothSolver:  Solving for Uy, Initial residual = 0.000472185, Final residual = 1.58497e-05, No Iterations 2
GAMG:  Solving for p, Initial residual = 0.00125055, Final residual = 1.18055e-05, No Iterations 47
GAMG:  Solving for p, Initial residual = 8.6984e-05, Final residual = 7.92736e-07, No Iterations 62
time step continuity errors : sum local = 4.48829e-08, global = 1.59206e-08, cumulative = -3.11268e-05
smoothSolver:  Solving for nuTilda, Initial residual = 0.000214957, Final residual = 5.08448e-06, No Iterations 2
ExecutionTime = 3.1 s  ClockTime = 3 s

forceCoeffs forceCoeffs write:
    Coefficient	Total	Pressure	Viscous	Internal
    Cd:	0.0886205	0.0321426	0.0564779	0
    Cd(f):	-0.11971	-0.152728	0.0330175	0
    Cd(r):	0.208331	0.184871	0.0234604	0
    Cl:	0.328041	0.337598	-0.00955719	0
    Cl(f):	0.138979	0.14386	-0.00488077	0
    Cl(r):	0.189062	0.193739	-0.00467642	0
    CmPitch:	-0.0250419	-0.0249397	-0.000102174	0
    CmRoll:	-0.164021	-0.168799	0.0047786	0
    CmYaw:	0.0443103	0.0160713	0.028239	0
    Cs:	6.05798e-24	-1.64142e-22	1.702e-22	0
    Cs(f):	0.0443103	0.0160713	0.028239	0
    Cs(r):	-0.0443103	-0.0160713	-0.028239	0

    writing force and moment coefficient files.

forces forces write:
    Sum of forces
        Total    : (47.558 176.043 -3.251e-21)
        Pressure : (17.2493 181.171 8.80867e-20)
        Viscous  : (30.3088 -5.12885 -9.13377e-20)
    Sum of moments
        Total    : (-88.0213 23.779 13.4387)
        Pressure : (-90.5857 8.62464 13.3838)
        Viscous  : (2.56442 15.1544 0.0548313)
    writing force and moment files.

Time = 40

smoothSolver:  Solving for Ux, Initial residual = 0.00044135, Final residual = 1.55889e-05, No Iterations 2
smoothSolver:  Solving for Uy, Initial residual = 0.00047221, Final residual = 1.58461e-05, No Iterations 2
GAMG:  Solving for p, Initial residual = 0.00126597, Final residual = 1.18054e-05, No Iterations 47
GAMG:  Solving for p, Initial residual = 8.54844e-05, Final residual = 7.84614e-07, No Iterations 62
time step continuity errors : sum local = 4.4525e-08, global = 1.5791e-08, cumulative = -3.1111e-05
smoothSolver:  Solving for nuTilda, Initial residual = 0.000212587, Final residual = 4.9969e-06, No Iterations 2
ExecutionTime = 3.21 s  ClockTime = 3 s

forceCoeffs forceCoeffs write:
    Coefficient	Total	Pressure	Viscous	Internal
    Cd:	0.0880228	0.0325956	0.0554272	0
    Cd(f):	-0.122736	-0.155138	0.0324026	0
    Cd(r):	0.210758	0.187734	0.0230246	0
    Cl:	0.333494	0.342872	-0.00937801	0
    Cl(f):	0.139397	0.144185	-0.00478821	0
    Cl(r):	0.194098	0.198687	-0.0045898	0
    CmPitch:	-0.0273505	-0.0272513	-9.9203e-05	0
    CmRoll:	-0.166747	-0.171436	0.00468901	0
    CmYaw:	0.0440114	0.0162978	0.0277136	0
    Cs:	5.30237e-24	-1.65414e-22	1.70716e-22	0
    Cs(f):	0.0440114	0.0162978	0.0277136	0
    Cs(r):	-0.0440114	-0.0162978	-0.0277136	0

    writing force and moment coefficient files.

forces forces write:
    Sum of forces
        Total    : (47.2373 178.969 -2.84551e-21)
        Pressure : (17.4924 184.002 8.87689e-20)
        Viscous  : (29.7449 -5.03269 -9.16145e-20)
    Sum of moments
        Total    : (-89.4845 23.6186 14.6776)
        Pressure : (-92.0008 8.74619 14.6243)
        Viscous  : (2.51635 14.8724 0.0532371)
    writing force and moment files.

Time = 41

smoothSolver:  Solving for Ux, Initial residual = 0.00043693, Final residual = 1.53903e-05, No Iterations 2
smoothSolver:  Solving for Uy, Initial residual = 0.00047226, Final residual = 1.58423e-05, No Iterations 2
GAMG:  Solving for p, Initial residual = 0.00127137, Final residual = 1.16399e-05, No Iterations 47
GAMG:  Solving for p, Initial residual = 8.38331e-05, Final residual = 7.70568e-07, No Iterations 62
time step continuity errors : sum local = 4.38301e-08, global = 1.55263e-08, cumulative = -3.10955e-05
smoothSolver:  Solving for nuTilda, Initial residual = 0.000210863, Final residual = 4.93043e-06, No Iterations 2
ExecutionTime = 3.29 s  ClockTime = 3 s

forceCoeffs forceCoeffs write:
    Coefficient	Total	Pressure	Viscous	Internal
    Cd:	0.0874545	0.033034	0.0544205	0
    Cd(f):	-0.1257	-0.157513	0.0318134	0
    Cd(r):	0.213155	0.190547	0.0226071	0
    Cl:	0.338855	0.348061	-0.00920629	0
    Cl(f):	0.139803	0.144503	-0.00469955	0
    Cl(r):	0.199052	0.203558	-0.00450674	0
    CmPitch:	-0.0296242	-0.0295278	-9.64081e-05	0
    CmRoll:	-0.169427	-0.17403	0.00460314	0
    CmYaw:	0.0437273	0.016517	0.0272103	0
    Cs:	4.26638e-24	-1.66998e-22	1.71264e-22	0
    Cs(f):	0.0437273	0.016517	0.0272103	0
    Cs(r):	-0.0437273	-0.016517	-0.0272103	0

    writing force and moment coefficient files.

forces forces write:
    Sum of forces
        Total    : (46.9323 181.846 -2.28954e-21)
        Pressure : (17.7276 186.786 8.96189e-20)
        Viscous  : (29.2047 -4.94054 -9.19085e-20)
    Sum of moments
        Total    : (-90.9228 23.4661 15.8978)
        Pressure : (-93.3931 8.86382 15.846)
        Viscous  : (2.47027 14.6023 0.0517372)
    writing force and moment files.

Time = 42

smoothSolver:  Solving for Ux, Initial residual = 0.000432639, Final residual = 1.51956e-05, No Iterations 2
smoothSolver:  Solving for Uy, Initial residual = 0.000472323, Final residual = 1.58402e-05, No Iterations 2
GAMG:  Solving for p, Initial residual = 0.00126959, Final residual = 1.14078e-05, No Iterations 47
GAMG:  Solving for p, Initial residual = 8.22057e-05, Final residual = 7.54362e-07, No Iterations 62
time step continuity errors : sum local = 4.30089e-08, global = 1.52107e-08, cumulative = -3.10803e-05
smoothSolver:  Solving for nuTilda, Initial residual = 0.00020928, Final residual = 4.86768e-06, No Iterations 2
ExecutionTime = 3.36 s  ClockTime = 3 s

forceCoeffs forceCoeffs write:
    Coefficient	Total	Pressure	Viscous	Internal
    Cd:	0.0869127	0.0334578	0.053455	0
    Cd(f):	-0.128605	-0.159853	0.0312483	0
    Cd(r):	0.215518	0.193311	0.0222067	0
    Cl:	0.344122	0.353164	-0.00904151	0
    Cl(f):	0.140199	0.144814	-0.00461453	0
    Cl(r):	0.203923	0.20835	-0.00442698	0
    CmPitch:	-0.031862	-0.0317683	-9.37739e-05	0
    CmRoll:	-0.172061	-0.176582	0.00452076	0
    CmYaw:	0.0434564	0.0167289	0.0267275	0
    Cs:	2.93508e-24	-1.6893e-22	1.71865e-22	0
    Cs(f):	0.0434564	0.0167289	0.0267275	0
    Cs(r):	-0.0434564	-0.0167289	-0.0267275	0

    writing force and moment coefficient files.

forces forces write:
    Sum of forces
        Total    : (46.6416 184.673 -1.5751e-21)
        Pressure : (17.955 189.525 9.06559e-20)
        Viscous  : (28.6865 -4.85211 -9.2231e-20)
    Sum of moments
        Total    : (-92.3363 23.3208 17.0987)
        Pressure : (-94.7623 8.97752 17.0484)
        Viscous  : (2.42605 14.3433 0.0503236)
    writing force and moment files.

Time = 43

smoothSolver:  Solving for Ux, Initial residual = 0.000428501, Final residual = 1.50044e-05, No Iterations 2
smoothSolver:  Solving for Uy, Initial residual = 0.00047238, Final residual = 1.5841e-05, No Iterations 2
GAMG:  Solving for p, Initial residual = 0.00129621, Final residual = 1.24553e-05, No Iterations 45
GAMG:  Solving for p, Initial residual = 8.14573e-05, Final residual = 7.84357e-07, No Iterations 62
time step continuity errors : sum local = 4.48233e-08, global = 1.58529e-08, cumulative = -3.10644e-05
smoothSolver:  Solving for nuTilda, Initial residual = 0.000207547, Final residual = 4.79542e-06, No Iterations 2
ExecutionTime = 3.44 s  ClockTime = 3 s

forceCoeffs forceCoeffs write:
    Coefficient	Total	Pressure	Viscous	Internal
    Cd:	0.0863946	0.0338667	0.0525279	0
    Cd(f):	-0.131451	-0.162157	0.0307056	0
    Cd(r):	0.217846	0.196023	0.0218223	0
    Cl:	0.349297	0.35818	-0.00888323	0
    Cl(f):	0.140584	0.145117	-0.0045329	0
    Cl(r):	0.208713	0.213063	-0.00435033	0
    CmPitch:	-0.0340642	-0.0339729	-9.12864e-05	0
    CmRoll:	-0.174648	-0.17909	0.00444161	0
    CmYaw:	0.0431973	0.0169334	0.026264	0
    Cs:	1.80251e-24	-1.70681e-22	1.72484e-22	0
    Cs(f):	0.0431973	0.0169334	0.026264	0
    Cs(r):	-0.0431973	-0.0169334	-0.026264	0

    writing force and moment coefficient files.

forces forces write:
    Sum of forces
        Total    : (46.3635 187.449 -9.67312e-22)
        Pressure : (18.1745 192.217 9.15957e-20)
        Viscous  : (28.189 -4.76717 -9.25631e-20)
    Sum of moments
        Total    : (-93.7247 23.1817 18.2805)
        Pressure : (-96.1083 9.08725 18.2315)
        Viscous  : (2.38358 14.0945 0.0489886)
    writing force and moment files.

Time = 44

smoothSolver:  Solving for Ux, Initial residual = 0.000424566, Final residual = 1.48196e-05, No Iterations 2
smoothSolver:  Solving for Uy, Initial residual = 0.00047245, Final residual = 1.58402e-05, No Iterations 2
GAMG:  Solving for p, Initial residual = 0.00130309, Final residual = 1.22148e-05, No Iterations 45
GAMG:  Solving for p, Initial residual = 7.98e-05, Final residual = 7.70293e-07, No Iterations 62
time step continuity errors : sum local = 4.41247e-08, global = 1.55801e-08, cumulative = -3.10488e-05
smoothSolver:  Solving for nuTilda, Initial residual = 0.000206434, Final residual = 4.74259e-06, No Iterations 2
ExecutionTime = 3.52 s  ClockTime = 3 s

forceCoeffs forceCoeffs write:
    Coefficient	Total	Pressure	Viscous	Internal
    Cd:	0.0858984	0.0342616	0.0516368	0
    Cd(f):	-0.134242	-0.164426	0.0301839	0
    Cd(r):	0.22014	0.198687	0.0214529	0
    Cl:	0.354382	0.363113	-0.00873102	0
    Cl(f):	0.140959	0.145414	-0.00445445	0
    Cl(r):	0.213423	0.217699	-0.00427658	0
    CmPitch:	-0.0362318	-0.0361428	-8.89365e-05	0
    CmRoll:	-0.177191	-0.181556	0.00436551	0
    CmYaw:	0.0429492	0.0171308	0.0258184	0
    Cs:	8.31623e-25	-1.72317e-22	1.73149e-22	0
    Cs(f):	0.0429492	0.0171308	0.0258184	0
    Cs(r):	-0.0429492	-0.0171308	-0.0258184	0

    writing force and moment coefficient files.

forces forces write:
    Sum of forces
        Total    : (46.0972 190.178 -4.46289e-22)
        Pressure : (18.3864 194.864 9.24738e-20)
        Viscous  : (27.7108 -4.68549 -9.292e-20)
    Sum of moments
        Total    : (-95.0892 23.0486 19.4437)
        Pressure : (-97.4319 9.19322 19.396)
        Viscous  : (2.34274 13.8554 0.0477276)
    writing force and moment files.

Time = 45

smoothSolver:  Solving for Ux, Initial residual = 0.000420764, Final residual = 1.46385e-05, No Iterations 2
smoothSolver:  Solving for Uy, Initial residual = 0.000472534, Final residual = 1.58434e-05, No Iterations 2
GAMG:  Solving for p, Initial residual = 0.00130856, Final residual = 1.19977e-05, No Iterations 45
GAMG:  Solving for p, Initial residual = 7.80974e-05, Final residual = 7.55907e-07, No Iterations 62
time step continuity errors : sum local = 4.3405e-08, global = 1.53095e-08, cumulative = -3.10335e-05
smoothSolver:  Solving for nuTilda, Initial residual = 0.000205987, Final residual = 4.71279e-06, No Iterations 2
ExecutionTime = 3.59 s  ClockTime = 3 s

forceCoeffs forceCoeffs write:
    Coefficient	Total	Pressure	Viscous	Internal
    Cd:	0.0854228	0.0346434	0.0507794	0
    Cd(f):	-0.136977	-0.166659	0.0296819	0
    Cd(r):	0.2224	0.201302	0.0210974	0
    Cl:	0.359377	0.367962	-0.0085845	0
    Cl(f):	0.141324	0.145703	-0.00437898	0
    Cl(r):	0.218053	0.222259	-0.00420553	0
    CmPitch:	-0.0383646	-0.0382779	-8.67252e-05	0
    CmRoll:	-0.179689	-0.183981	0.00429225	0
    CmYaw:	0.0427114	0.0173217	0.0253897	0
    Cs:	-1.50521e-25	-1.73998e-22	1.73848e-22	0
    Cs(f):	0.0427114	0.0173217	0.0253897	0
    Cs(r):	-0.0427114	-0.0173217	-0.0253897	0

    writing force and moment coefficient files.

forces forces write:
    Sum of forces
        Total    : (45.842 192.859 8.07769e-23)
        Pressure : (18.5913 197.466 9.33759e-20)
[...]
    Cd(r):	0.445264	0.441502	0.00376149	0
    Cl:	0.852829	0.85331	-0.000481076	0
    Cl(f):	0.227439	0.227807	-0.000368243	0
    Cl(r):	0.62539	0.625502	-0.000112833	0
    CmPitch:	-0.198975	-0.198848	-0.000127705	0
    CmRoll:	-0.426414	-0.426655	0.000240538	0
    CmYaw:	0.0188493	0.0148472	0.00400203	0
    Cs:	1.52253e-22	1.00579e-22	5.16743e-23	0
    Cs(f):	0.0188493	0.0148472	0.00400203	0
    Cs(r):	-0.0188493	-0.0148472	-0.00400203	0

    writing force and moment coefficient files.

forces forces write:
    Sum of forces
        Total    : (20.2308 457.669 -8.17065e-20)
        Pressure : (15.9355 457.927 -5.39756e-20)
        Viscous  : (4.29536 -0.258169 -2.77309e-20)
    Sum of moments
        Total    : (-228.834 10.1154 106.78)
        Pressure : (-228.963 7.96774 106.711)
        Viscous  : (0.129084 2.14768 0.0685325)
    writing force and moment files.

Time = 490

smoothSolver:  Solving for Ux, Initial residual = 5.98261e-05, Final residual = 1.66238e-06, No Iterations 2
smoothSolver:  Solving for Uy, Initial residual = 0.000174619, Final residual = 7.78833e-06, No Iterations 2
GAMG:  Solving for p, Initial residual = 0.000548654, Final residual = 5.21972e-06, No Iterations 19
GAMG:  Solving for p, Initial residual = 1.24228e-05, Final residual = 1.19144e-07, No Iterations 56
time step continuity errors : sum local = 1.14132e-08, global = -5.85797e-09, cumulative = -2.98996e-05
smoothSolver:  Solving for nuTilda, Initial residual = 6.44997e-05, Final residual = 5.0485e-06, No Iterations 1
ExecutionTime = 30.66 s  ClockTime = 31 s

forceCoeffs forceCoeffs write:
    Coefficient	Total	Pressure	Viscous	Internal
    Cd:	0.0376432	0.0296437	0.00799951	0
    Cd(f):	-0.407802	-0.412041	0.0042391	0
    Cd(r):	0.445445	0.441685	0.00376041	0
    Cl:	0.853248	0.853726	-0.000478685	0
    Cl(f):	0.227548	0.227916	-0.000367424	0
    Cl(r):	0.625699	0.625811	-0.000111261	0
    CmPitch:	-0.199076	-0.198948	-0.000128082	0
    CmRoll:	-0.426624	-0.426863	0.000239343	0
    CmYaw:	0.0188216	0.0148219	0.00399975	0
    Cs:	1.51792e-22	1.00158e-22	5.1634e-23	0
    Cs(f):	0.0188216	0.0148219	0.00399975	0
    Cs(r):	-0.0188216	-0.0148219	-0.00399975	0

    writing force and moment coefficient files.

forces forces write:
    Sum of forces
        Total    : (20.2012 457.894 -8.14588e-20)
        Pressure : (15.9082 458.15 -5.37496e-20)
        Viscous  : (4.29292 -0.256886 -2.77093e-20)
    Sum of moments
        Total    : (-228.947 10.1006 106.834)
        Pressure : (-229.075 7.95412 106.765)
        Viscous  : (0.128443 2.14646 0.0687348)
    writing force and moment files.

Time = 491

smoothSolver:  Solving for Ux, Initial residual = 5.95744e-05, Final residual = 1.66324e-06, No Iterations 2
smoothSolver:  Solving for Uy, Initial residual = 0.000173415, Final residual = 7.77755e-06, No Iterations 2
GAMG:  Solving for p, Initial residual = 0.000550714, Final residual = 5.08784e-06, No Iterations 20
GAMG:  Solving for p, Initial residual = 1.31076e-05, Final residual = 1.21618e-07, No Iterations 54
time step continuity errors : sum local = 1.16658e-08, global = -5.5959e-09, cumulative = -2.99052e-05
smoothSolver:  Solving for nuTilda, Initial residual = 6.42848e-05, Final residual = 5.02404e-06, No Iterations 1
ExecutionTime = 30.73 s  ClockTime = 31 s

forceCoeffs forceCoeffs write:
    Coefficient	Total	Pressure	Viscous	Internal
    Cd:	0.0376001	0.0296051	0.007995	0
    Cd(f):	-0.408031	-0.412267	0.00423565	0
    Cd(r):	0.445631	0.441872	0.00375934	0
    Cl:	0.853662	0.854139	-0.000476306	0
    Cl(f):	0.227655	0.228021	-0.00036661	0
    Cl(r):	0.626008	0.626117	-0.000109696	0
    CmPitch:	-0.199176	-0.199048	-0.000128457	0
    CmRoll:	-0.426831	-0.427069	0.000238153	0
    CmYaw:	0.0188001	0.0148026	0.0039975	0
    Cs:	1.52044e-22	1.00688e-22	5.13562e-23	0
    Cs(f):	0.0188001	0.0148026	0.0039975	0
    Cs(r):	-0.0188001	-0.0148026	-0.0039975	0

    writing force and moment coefficient files.

forces forces write:
    Sum of forces
        Total    : (20.178 458.116 -8.1594e-20)
        Pressure : (15.8875 458.372 -5.40338e-20)
        Viscous  : (4.2905 -0.255609 -2.75602e-20)
    Sum of moments
        Total    : (-229.058 10.089 106.888)
        Pressure : (-229.186 7.94376 106.819)
        Viscous  : (0.127804 2.14525 0.068936)
    writing force and moment files.

Time = 492

smoothSolver:  Solving for Ux, Initial residual = 5.89173e-05, Final residual = 1.63808e-06, No Iterations 2
smoothSolver:  Solving for Uy, Initial residual = 0.000173015, Final residual = 7.67265e-06, No Iterations 2
GAMG:  Solving for p, Initial residual = 0.000547563, Final residual = 5.1412e-06, No Iterations 19
GAMG:  Solving for p, Initial residual = 1.22621e-05, Final residual = 1.19061e-07, No Iterations 56
time step continuity errors : sum local = 1.14096e-08, global = -5.87249e-09, cumulative = -2.99111e-05
smoothSolver:  Solving for nuTilda, Initial residual = 6.40737e-05, Final residual = 4.99996e-06, No Iterations 1
ExecutionTime = 30.79 s  ClockTime = 31 s

forceCoeffs forceCoeffs write:
    Coefficient	Total	Pressure	Viscous	Internal
    Cd:	0.0375455	0.029555	0.00799052	0
    Cd(f):	-0.408267	-0.412499	0.00423223	0
    Cd(r):	0.445812	0.442054	0.00375829	0
    Cl:	0.854079	0.854553	-0.000473938	0
    Cl(f):	0.227763	0.228129	-0.000365799	0
    Cl(r):	0.626316	0.626424	-0.00010814	0
    CmPitch:	-0.199277	-0.199148	-0.00012883	0
    CmRoll:	-0.42704	-0.427276	0.000236969	0
    CmYaw:	0.0187727	0.0147775	0.00399526	0
    Cs:	1.51587e-22	1.00271e-22	5.13159e-23	0
    Cs(f):	0.0187727	0.0147775	0.00399526	0
    Cs(r):	-0.0187727	-0.0147775	-0.00399526	0

    writing force and moment coefficient files.

forces forces write:
    Sum of forces
        Total    : (20.1487 458.34 -8.13489e-20)
        Pressure : (15.8606 458.594 -5.38103e-20)
        Viscous  : (4.2881 -0.254338 -2.75386e-20)
    Sum of moments
        Total    : (-229.17 10.0744 106.941)
        Pressure : (-229.297 7.9303 106.872)
        Viscous  : (0.127169 2.14405 0.0691361)
    writing force and moment files.

Time = 493

smoothSolver:  Solving for Ux, Initial residual = 5.86712e-05, Final residual = 1.63873e-06, No Iterations 2
smoothSolver:  Solving for Uy, Initial residual = 0.0001718, Final residual = 7.66053e-06, No Iterations 2
GAMG:  Solving for p, Initial residual = 0.000558614, Final residual = 5.02493e-06, No Iterations 20
GAMG:  Solving for p, Initial residual = 1.29871e-05, Final residual = 1.21249e-07, No Iterations 54
time step continuity errors : sum local = 1.16348e-08, global = -5.60009e-09, cumulative = -2.99167e-05
smoothSolver:  Solving for nuTilda, Initial residual = 6.38655e-05, Final residual = 4.97619e-06, No Iterations 1
ExecutionTime = 30.85 s  ClockTime = 31 s

forceCoeffs forceCoeffs write:
    Coefficient	Total	Pressure	Viscous	Internal
    Cd:	0.037503	0.0295169	0.00798609	0
    Cd(f):	-0.408494	-0.412723	0.00422884	0
    Cd(r):	0.445997	0.44224	0.00375725	0
    Cl:	0.854491	0.854963	-0.000471583	0
    Cl(f):	0.227869	0.228234	-0.000364992	0
    Cl(r):	0.626623	0.62673	-0.000106591	0
    CmPitch:	-0.199377	-0.199248	-0.0001292	0
    CmRoll:	-0.427246	-0.427482	0.000235791	0
    CmYaw:	0.0187515	0.0147585	0.00399304	0
    Cs:	1.51843e-22	1.00805e-22	5.10381e-23	0
    Cs(f):	0.0187515	0.0147585	0.00399304	0
    Cs(r):	-0.0187515	-0.0147585	-0.00399304	0

    writing force and moment coefficient files.

forces forces write:
    Sum of forces
        Total    : (20.1259 458.561 -8.14865e-20)
        Pressure : (15.8402 458.814 -5.4097e-20)
        Viscous  : (4.28572 -0.253074 -2.73895e-20)
    Sum of moments
        Total    : (-229.281 10.063 106.995)
        Pressure : (-229.407 7.92011 106.926)
        Viscous  : (0.126537 2.14286 0.0693351)
    writing force and moment files.

Time = 494

smoothSolver:  Solving for Ux, Initial residual = 5.8024e-05, Final residual = 1.61443e-06, No Iterations 2
smoothSolver:  Solving for Uy, Initial residual = 0.000171423, Final residual = 7.55746e-06, No Iterations 2
GAMG:  Solving for p, Initial residual = 0.000553481, Final residual = 5.08307e-06, No Iterations 19
GAMG:  Solving for p, Initial residual = 1.21035e-05, Final residual = 1.18909e-07, No Iterations 56
time step continuity errors : sum local = 1.13993e-08, global = -5.87873e-09, cumulative = -2.99225e-05
smoothSolver:  Solving for nuTilda, Initial residual = 6.3661e-05, Final residual = 4.95269e-06, No Iterations 1
ExecutionTime = 30.93 s  ClockTime = 31 s

forceCoeffs forceCoeffs write:
    Coefficient	Total	Pressure	Viscous	Internal
    Cd:	0.037449	0.0294673	0.00798169	0
    Cd(f):	-0.408728	-0.412954	0.00422547	0
    Cd(r):	0.446177	0.442421	0.00375623	0
    Cl:	0.854905	0.855375	-0.000469238	0
    Cl(f):	0.227976	0.22834	-0.000364188	0
    Cl(r):	0.62693	0.627035	-0.00010505	0
    CmPitch:	-0.199477	-0.199347	-0.000129569	0
    CmRoll:	-0.427453	-0.427687	0.000234619	0
    CmYaw:	0.0187245	0.0147337	0.00399085	0
    Cs:	1.51392e-22	1.00395e-22	5.09975e-23	0
    Cs(f):	0.0187245	0.0147337	0.00399085	0
    Cs(r):	-0.0187245	-0.0147337	-0.00399085	0

    writing force and moment coefficient files.

forces forces write:
    Sum of forces
        Total    : (20.0969 458.783 -8.12444e-20)
        Pressure : (15.8136 459.035 -5.38766e-20)
        Viscous  : (4.28336 -0.251816 -2.73677e-20)
    Sum of moments
        Total    : (-229.392 10.0485 107.049)
        Pressure : (-229.518 7.90679 106.979)
        Viscous  : (0.125908 2.14168 0.0695329)
    writing force and moment files.

Time = 495

smoothSolver:  Solving for Ux, Initial residual = 5.7784e-05, Final residual = 1.61481e-06, No Iterations 2
smoothSolver:  Solving for Uy, Initial residual = 0.000170191, Final residual = 7.54402e-06, No Iterations 2
GAMG:  Solving for p, Initial residual = 0.000552055, Final residual = 4.96208e-06, No Iterations 20
GAMG:  Solving for p, Initial residual = 1.27851e-05, Final residual = 1.20678e-07, No Iterations 54
time step continuity errors : sum local = 1.15844e-08, global = -5.59349e-09, cumulative = -2.99281e-05
smoothSolver:  Solving for nuTilda, Initial residual = 6.34607e-05, Final residual = 4.92947e-06, No Iterations 1
ExecutionTime = 31 s  ClockTime = 31 s

forceCoeffs forceCoeffs write:
    Coefficient	Total	Pressure	Viscous	Internal
    Cd:	0.0374071	0.0294298	0.00797733	0
    Cd(f):	-0.408954	-0.413176	0.00422212	0
    Cd(r):	0.446361	0.442606	0.00375521	0
    Cl:	0.855315	0.855782	-0.000466905	0
    Cl(f):	0.228081	0.228444	-0.000363388	0
    Cl(r):	0.627234	0.627338	-0.000103517	0
    CmPitch:	-0.199577	-0.199447	-0.000129935	0
    CmRoll:	-0.427657	-0.427891	0.000233453	0
    CmYaw:	0.0187036	0.0147149	0.00398867	0
    Cs:	1.51653e-22	1.00934e-22	5.07196e-23	0
    Cs(f):	0.0187036	0.0147149	0.00398867	0
    Cs(r):	-0.0187036	-0.0147149	-0.00398867	0

    writing force and moment coefficient files.

forces forces write:
    Sum of forces
        Total    : (20.0745 459.003 -8.13845e-20)
        Pressure : (15.7934 459.254 -5.41659e-20)
        Viscous  : (4.28102 -0.250564 -2.72186e-20)
    Sum of moments
        Total    : (-229.502 10.0372 107.103)
        Pressure : (-229.627 7.89672 107.033)
        Viscous  : (0.125282 2.14051 0.0697296)
    writing force and moment files.

Time = 496

smoothSolver:  Solving for Ux, Initial residual = 5.71534e-05, Final residual = 1.59138e-06, No Iterations 2
smoothSolver:  Solving for Uy, Initial residual = 0.000169841, Final residual = 7.44284e-06, No Iterations 2
GAMG:  Solving for p, Initial residual = 0.000520118, Final residual = 5.03598e-06, No Iterations 19
GAMG:  Solving for p, Initial residual = 1.1952e-05, Final residual = 1.18631e-07, No Iterations 56
time step continuity errors : sum local = 1.13769e-08, global = -5.87779e-09, cumulative = -2.9934e-05
smoothSolver:  Solving for nuTilda, Initial residual = 6.32642e-05, Final residual = 4.90672e-06, No Iterations 1
ExecutionTime = 31.06 s  ClockTime = 31 s

forceCoeffs forceCoeffs write:
    Coefficient	Total	Pressure	Viscous	Internal
    Cd:	0.0373537	0.0293807	0.00797301	0
    Cd(f):	-0.409186	-0.413405	0.0042188	0
    Cd(r):	0.44654	0.442786	0.00375421	0
    Cl:	0.855726	0.85619	-0.000464584	0
    Cl(f):	0.228187	0.22855	-0.000362592	0
    Cl(r):	0.627539	0.627641	-0.000101992	0
    CmPitch:	-0.199676	-0.199546	-0.0001303	0
    CmRoll:	-0.427863	-0.428095	0.000232292	0
    CmYaw:	0.0186768	0.0146903	0.0039865	0
    Cs:	1.51205e-22	1.00527e-22	5.06786e-23	0
    Cs(f):	0.0186768	0.0146903	0.0039865	0
    Cs(r):	-0.0186768	-0.0146903	-0.0039865	0

    writing force and moment coefficient files.

forces forces write:
    Sum of forces
        Total    : (20.0458 459.224 -8.11441e-20)
        Pressure : (15.7671 459.473 -5.39475e-20)
        Viscous  : (4.2787 -0.249318 -2.71966e-20)
    Sum of moments
        Total    : (-229.612 10.0229 107.156)
        Pressure : (-229.736 7.88354 107.086)
        Viscous  : (0.124659 2.13935 0.0699251)
    writing force and moment files.

Time = 497

smoothSolver:  Solving for Ux, Initial residual = 5.69206e-05, Final residual = 1.5915e-06, No Iterations 2
smoothSolver:  Solving for Uy, Initial residual = 0.000168586, Final residual = 7.42838e-06, No Iterations 2
GAMG:  Solving for p, Initial residual = 0.000504185, Final residual = 4.90773e-06, No Iterations 20
GAMG:  Solving for p, Initial residual = 1.2663e-05, Final residual = 1.19943e-07, No Iterations 54
time step continuity errors : sum local = 1.1518e-08, global = -5.57547e-09, cumulative = -2.99396e-05
smoothSolver:  Solving for nuTilda, Initial residual = 6.30732e-05, Final residual = 4.88443e-06, No Iterations 1
ExecutionTime = 31.13 s  ClockTime = 32 s

forceCoeffs forceCoeffs write:
    Coefficient	Total	Pressure	Viscous	Internal
    Cd:	0.0373123	0.0293436	0.00796872	0
    Cd(f):	-0.40941	-0.413625	0.0042155	0
    Cd(r):	0.446722	0.442969	0.00375322	0
    Cl:	0.856132	0.856594	-0.000462274	0
    Cl(f):	0.228291	0.228653	-0.000361799	0
    Cl(r):	0.627841	0.627942	-0.000100475	0
    CmPitch:	-0.199775	-0.199644	-0.000130662	0
    CmRoll:	-0.428066	-0.428297	0.000231137	0
    CmYaw:	0.0186561	0.0146718	0.00398436	0
    Cs:	1.51469e-22	1.01069e-22	5.04003e-23	0
    Cs(f):	0.0186561	0.0146718	0.00398436	0
    Cs(r):	-0.0186561	-0.0146718	-0.00398436	0

    writing force and moment coefficient files.

forces forces write:
    Sum of forces
        Total    : (20.0236 459.442 -8.12855e-20)
        Pressure : (15.7472 459.69 -5.42382e-20)
        Viscous  : (4.2764 -0.248078 -2.70472e-20)
    Sum of moments
        Total    : (-229.721 10.0118 107.209)
        Pressure : (-229.845 7.87358 107.139)
        Viscous  : (0.124039 2.1382 0.0701194)
    writing force and moment files.

Time = 498

smoothSolver:  Solving for Ux, Initial residual = 5.63041e-05, Final residual = 1.56893e-06, No Iterations 2
smoothSolver:  Solving for Uy, Initial residual = 0.000168266, Final residual = 7.32926e-06, No Iterations 2
GAMG:  Solving for p, Initial residual = 0.000480045, Final residual = 4.07351e-06, No Iterations 21
GAMG:  Solving for p, Initial residual = 1.12365e-05, Final residual = 1.08441e-07, No Iterations 56
time step continuity errors : sum local = 1.04031e-08, global = -5.37933e-09, cumulative = -2.9945e-05
smoothSolver:  Solving for nuTilda, Initial residual = 6.28872e-05, Final residual = 4.86242e-06, No Iterations 1
ExecutionTime = 31.21 s  ClockTime = 32 s

forceCoeffs forceCoeffs write:
    Coefficient	Total	Pressure	Viscous	Internal
    Cd:	0.0372594	0.0292949	0.00796447	0
    Cd(f):	-0.40964	-0.413853	0.00421222	0
    Cd(r):	0.4469	0.443148	0.00375225	0
    Cl:	0.85654	0.857	-0.000459975	0
    Cl(f):	0.228397	0.228758	-0.000361009	0
    Cl(r):	0.628144	0.628243	-9.89658e-05	0
    CmPitch:	-0.199873	-0.199742	-0.000131022	0
    CmRoll:	-0.42827	-0.4285	0.000229988	0
    CmYaw:	0.0186297	0.0146475	0.00398223	0
    Cs:	1.51027e-22	1.00669e-22	5.03584e-23	0
    Cs(f):	0.0186297	0.0146475	0.00398223	0
    Cs(r):	-0.0186297	-0.0146475	-0.00398223	0

    writing force and moment coefficient files.

forces forces write:
    Sum of forces
        Total    : (19.9952 459.661 -8.10485e-20)
        Pressure : (15.7211 459.907 -5.40238e-20)
        Viscous  : (4.27411 -0.246845 -2.70247e-20)
    Sum of moments
        Total    : (-229.83 9.99759 107.262)
        Pressure : (-229.954 7.86054 107.191)
        Viscous  : (0.123422 2.13706 0.0703126)
    writing force and moment files.

Time = 499

smoothSolver:  Solving for Ux, Initial residual = 5.60782e-05, Final residual = 1.56877e-06, No Iterations 2
smoothSolver:  Solving for Uy, Initial residual = 0.000166996, Final residual = 7.31361e-06, No Iterations 2
GAMG:  Solving for p, Initial residual = 0.000477265, Final residual = 4.02483e-06, No Iterations 22
GAMG:  Solving for p, Initial residual = 1.19712e-05, Final residual = 1.076e-07, No Iterations 54
time step continuity errors : sum local = 1.03358e-08, global = -5.05622e-09, cumulative = -2.995e-05
smoothSolver:  Solving for nuTilda, Initial residual = 6.27046e-05, Final residual = 4.84068e-06, No Iterations 1
ExecutionTime = 31.28 s  ClockTime = 32 s

forceCoeffs forceCoeffs write:
    Coefficient	Total	Pressure	Viscous	Internal
    Cd:	0.0372184	0.0292581	0.00796025	0
    Cd(f):	-0.409862	-0.414071	0.00420897	0
    Cd(r):	0.447081	0.443329	0.00375128	0
    Cl:	0.856943	0.8574	-0.000457688	0
    Cl(f):	0.2285	0.22886	-0.000360224	0
    Cl(r):	0.628443	0.62854	-9.74644e-05	0
    CmPitch:	-0.199971	-0.19984	-0.00013138	0
    CmRoll:	-0.428471	-0.4287	0.000228844	0
    CmYaw:	0.0186092	0.0146291	0.00398012	0
    Cs:	1.51293e-22	1.01213e-22	5.00801e-23	0
    Cs(f):	0.0186092	0.0146291	0.00398012	0
    Cs(r):	-0.0186092	-0.0146291	-0.00398012	0

    writing force and moment coefficient files.

forces forces write:
    Sum of forces
        Total    : (19.9732 459.877 -8.11913e-20)
        Pressure : (15.7013 460.122 -5.43159e-20)
        Viscous  : (4.27185 -0.245617 -2.68754e-20)
    Sum of moments
        Total    : (-229.938 9.98658 107.314)
        Pressure : (-230.061 7.85065 107.244)
        Viscous  : (0.122809 2.13593 0.0705046)
    writing force and moment files.

Time = 500

smoothSolver:  Solving for Ux, Initial residual = 5.54728e-05, Final residual = 1.54707e-06, No Iterations 2
smoothSolver:  Solving for Uy, Initial residual = 0.000166707, Final residual = 7.21669e-06, No Iterations 2
GAMG:  Solving for p, Initial residual = 0.000467953, Final residual = 4.01896e-06, No Iterations 21
GAMG:  Solving for p, Initial residual = 1.11106e-05, Final residual = 1.07502e-07, No Iterations 56
time step continuity errors : sum local = 1.03163e-08, global = -5.33697e-09, cumulative = -2.99554e-05
smoothSolver:  Solving for nuTilda, Initial residual = 6.25243e-05, Final residual = 4.81931e-06, No Iterations 1
ExecutionTime = 31.37 s  ClockTime = 32 s

forceCoeffs forceCoeffs write:
    Coefficient	Total	Pressure	Viscous	Internal
    Cd:	0.0371658	0.0292098	0.00795606	0
    Cd(f):	-0.41009	-0.414296	0.00420574	0
    Cd(r):	0.447256	0.443506	0.00375033	0
    Cl:	0.857347	0.857802	-0.000455412	0
    Cl(f):	0.228605	0.228964	-0.000359441	0
    Cl(r):	0.628742	0.628838	-9.59708e-05	0
    CmPitch:	-0.200069	-0.199937	-0.000131735	0
    CmRoll:	-0.428673	-0.428901	0.000227706	0
    CmYaw:	0.0185829	0.0146049	0.00397803	0
    Cs:	1.50854e-22	1.00816e-22	5.00382e-23	0
    Cs(f):	0.0185829	0.0146049	0.00397803	0
    Cs(r):	-0.0185829	-0.0146049	-0.00397803	0

    writing force and moment coefficient files.

forces forces write:
    Sum of forces
        Total    : (19.945 460.093 -8.09556e-20)
        Pressure : (15.6754 460.338 -5.41026e-20)
        Viscous  : (4.26961 -0.244396 -2.68529e-20)
    Sum of moments
        Total    : (-230.047 9.97249 107.366)
        Pressure : (-230.169 7.83768 107.296)
        Viscous  : (0.122198 2.1348 0.0706954)
    writing force and moment files.

End

Finalising parallel run
