/*---------------------------------------------------------------------------*\
| =========                 |                                                 |
| \\      /  F ield         | OpenFOAM: The Open Source CFD Toolbox           |
|  \\    /   O peration     | Version:  2412                                  |
|   \\  /    A nd           | Website:  www.openfoam.com                      |
|    \\/     M anipulation  |                                                 |
\*---------------------------------------------------------------------------*/
Build  : _8dbc61e11c-20241220 OPENFOAM=2412 version=v2412
Arch   : "LSB;label=32;scalar=64"
Exec   : simpleFoam -parallel
Date   : Mar 30 2025
Time   : 01:17:34
Host   : RaiotdeMacBook-Air.local
PID    : 21403
I/O    : uncollated
Case   : /Users/raiot/Documents/Programing/VSCode/airfoilDemo/sims
nProcs : 4
Hosts  :
(
    (RaiotdeMacBook-Air.local 4)
)
Pstream initialized with:
    floatTransfer      : false
    maxCommsSize       : 0
    nProcsSimpleSum    : 0
    nonBlockingExchange: 0 (tuning: 0)
    exchange algorithm : 0
    commsType          : nonBlocking
    polling iterations : 0
trapFpe: Floating point exception trapping enabled (FOAM_SIGFPE).
fileModificationChecking : Monitoring run-time modified files using timeStampMaster (fileModificationSkew 5, maxFileModificationPolls 20)
allowSystemOperations : Allowing user-supplied system call operations

// * * * * * * * * * * * * * * * * * * * * * * * * * * * * * * * * * * * * * //
Create time

Create mesh for time = 0


SIMPLE: convergence criteria
    field p	 tolerance 1e-06
    field U	 tolerance 1e-06
    field nuTilda	 tolerance 1e-06

Reading field p

Reading field U

Reading/calculating face flux field phi

Selecting incompressible transport model Newtonian
Selecting turbulence model type RAS
Selecting RAS turbulence model SpalartAllmaras
Selecting patchDistMethod meshWave
ft2 term: inactive
RAS
{
    RASModel        SpalartAllmaras;
    turbulence      on;
    printCoeffs     on;
    sigmaNut        0.66666;
    kappa           0.41;
    Cb1             0.1355;
    Cb2             0.622;
    Cw2             0.3;
    Cw3             2;
    Cv1             7.1;
    Cs              0.3;
    ck              0.07;
    ft2             false;
    Ct3             1.2;
    Ct4             0.5;
}

No MRF models present

No finite volume options present

Starting time loop

forceCoeffs forceCoeffs:
    rho: rhoInf
    Freestream density (rhoInf) set to 1.225
    Not including porosity effects
    magUInf: 1
    lRef   : 1
    Aref   : 1
    rhoInf : 1.225
    Selecting all coefficients
    - Drag force: Cd
    - Drag force front: Cd(f)
    - Drag force rear: Cd(r)
    - Lift force: Cl
    - Lift force front: Cl(f)
    - Lift force rear: Cl(r)
    - Pitch moment: CmPitch
    - Roll moment: CmRoll
    - Yaw moment: CmYaw
    - Side force: Cs
    - Side force front: Cs(f)
    - Side force rear: Cs(r)


forces forces:
    p: p
    U: U
    rho: rhoInf
    Freestream density (rhoInf) set to 1.225
    Not including porosity effects

Time = 1

smoothSolver:  Solving for Ux, Initial residual = 1, Final residual = 0.0276738, No Iterations 2
smoothSolver:  Solving for Uy, Initial residual = 1, Final residual = 0.0268569, No Iterations 2
GAMG:  Solving for p, Initial residual = 1, Final residual = 0.00977486, No Iterations 57
GAMG:  Solving for p, Initial residual = 0.00464109, Final residual = 3.96993e-05, No Iterations 22
time step continuity errors : sum local = 0.000313578, global = 0.000112946, cumulative = 0.000112946
smoothSolver:  Solving for nuTilda, Initial residual = 1, Final residual = 0.049344, No Iterations 2
ExecutionTime = 0.09 s  ClockTime = 0 s

forceCoeffs forceCoeffs write:
    Coefficient	Total	Pressure	Viscous	Internal
    Cd:	9404.09	8786.54	617.553	0
    Cd(f):	-8199.69	-8524.68	324.989	0
    Cd(r):	17603.8	17311.2	292.564	0
    Cl:	25803.5	25835.9	-32.4244	0
    Cl(f):	-1322.74	-1263.67	-59.0656	0
    Cl(r):	27126.2	27099.6	26.6413	0
    CmPitch:	-14224.5	-14181.6	-42.8535	0
    CmRoll:	-12901.7	-12918	16.2122	0
    CmYaw:	4702.05	4393.27	308.776	0
    Cs:	8.0445e-17	3.37426e-17	4.67024e-17	0
    Cs(f):	4702.05	4393.27	308.776	0
    Cs(r):	-4702.05	-4393.27	-308.776	0

    writing force and moment coefficient files.

forces forces write:
    Sum of forces
        Total    : (5760.01 15804.6 -4.92725e-17)
        Pressure : (5381.76 15824.5 -2.06673e-17)
        Viscous  : (378.251 -19.8599 -2.86052e-17)
    Sum of moments
        Total    : (-7902.32 2880 8712.49)
        Pressure : (-7912.25 2690.88 8686.24)
        Viscous  : (9.92996 189.126 26.2477)
    writing force and moment files.

Time = 2

smoothSolver:  Solving for Ux, Initial residual = 0.11284, Final residual = 0.0111734, No Iterations 4
smoothSolver:  Solving for Uy, Initial residual = 0.0748528, Final residual = 0.00720582, No Iterations 4
GAMG:  Solving for p, Initial residual = 0.177844, Final residual = 0.00174644, No Iterations 35
GAMG:  Solving for p, Initial residual = 0.0441683, Final residual = 0.000429607, No Iterations 67
time step continuity errors : sum local = 0.000484951, global = -1.48022e-06, cumulative = 0.000111465
smoothSolver:  Solving for nuTilda, Initial residual = 0.0223545, Final residual = 0.00218222, No Iterations 7
ExecutionTime = 0.15 s  ClockTime = 0 s

forceCoeffs forceCoeffs write:
    Coefficient	Total	Pressure	Viscous	Internal
    Cd:	1148.54	901.012	247.531	0
    Cd(f):	-733.603	-912.405	178.802	0
    Cd(r):	1882.15	1813.42	68.7293	0
    Cl:	2615.75	2725.82	-110.072	0
    Cl(f):	527.827	561.373	-33.5463	0
    Cl(r):	2087.92	2164.45	-76.5262	0
    CmPitch:	-780.048	-801.538	21.49	0
    CmRoll:	-1307.88	-1362.91	55.0362	0
    CmYaw:	574.272	450.506	123.766	0
    Cs:	1.0128e-17	3.34214e-18	6.78583e-18	0
    Cs(f):	574.272	450.506	123.766	0
    Cs(r):	-574.272	-450.506	-123.766	0

    writing force and moment coefficient files.

forces forces write:
    Sum of forces
        Total    : (703.483 1602.15 -6.20338e-18)
        Pressure : (551.87 1669.57 -2.04706e-18)
        Viscous  : (151.613 -67.4194 -4.15632e-18)
    Sum of moments
        Total    : (-801.073 351.741 477.78)
        Pressure : (-834.783 275.935 490.942)
        Viscous  : (33.7097 75.8064 -13.1626)
    writing force and moment files.

Time = 3

smoothSolver:  Solving for Ux, Initial residual = 0.0121864, Final residual = 0.00103596, No Iterations 5
smoothSolver:  Solving for Uy, Initial residual = 0.010219, Final residual = 0.000858053, No Iterations 5
GAMG:  Solving for p, Initial residual = 0.16179, Final residual = 0.00153815, No Iterations 34
GAMG:  Solving for p, Initial residual = 0.0326418, Final residual = 0.000313358, No Iterations 62
time step continuity errors : sum local = 8.29419e-05, global = 3.36064e-05, cumulative = 0.000145072
smoothSolver:  Solving for nuTilda, Initial residual = 0.00669923, Final residual = 0.000590375, No Iterations 9
ExecutionTime = 0.21 s  ClockTime = 1 s

forceCoeffs forceCoeffs write:
    Coefficient	Total	Pressure	Viscous	Internal
    Cd:	226.247	61.4212	164.826	0
    Cd(f):	-32.022	-138.37	106.348	0
    Cd(r):	258.269	199.791	58.4779	0
    Cl:	290.291	338.161	-47.87	0
    Cl(f):	269.188	288.932	-19.7448	0
    Cl(r):	21.1034	49.2285	-28.1252	0
    CmPitch:	124.042	119.852	4.19018	0
    CmRoll:	-145.145	-169.08	23.935	0
    CmYaw:	113.123	30.7106	82.4129	0
    Cs:	-1.44865e-19	1.17007e-18	-1.31493e-18	0
    Cs(f):	113.123	30.7106	82.4129	0
    Cs(r):	-113.123	-30.7106	-82.4129	0

    writing force and moment coefficient files.

forces forces write:
    Sum of forces
        Total    : (138.576 177.803 8.87295e-20)
        Pressure : (37.6205 207.124 -7.16667e-19)
        Viscous  : (100.956 -29.3204 8.05397e-19)
    Sum of moments
        Total    : (-88.9016 69.2881 -75.9758)
        Pressure : (-103.562 18.8102 -73.4093)
        Viscous  : (14.6602 50.4779 -2.56648)
    writing force and moment files.

Time = 4

smoothSolver:  Solving for Ux, Initial residual = 0.00383234, Final residual = 0.000283702, No Iterations 4
smoothSolver:  Solving for Uy, Initial residual = 0.00317764, Final residual = 0.000268578, No Iterations 4
GAMG:  Solving for p, Initial residual = 0.230443, Final residual = 0.00205892, No Iterations 33
GAMG:  Solving for p, Initial residual = 0.00442832, Final residual = 4.38995e-05, No Iterations 92
time step continuity errors : sum local = 2.12208e-05, global = 5.21372e-07, cumulative = 0.000145593
smoothSolver:  Solving for nuTilda, Initial residual = 0.00448871, Final residual = 0.000416609, No Iterations 9
ExecutionTime = 0.29 s  ClockTime = 1 s

forceCoeffs forceCoeffs write:
    Coefficient	Total	Pressure	Viscous	Internal
    Cd:	154.163	29.4955	124.667	0
    Cd(f):	-73.396	-148.923	75.5267	0
    Cd(r):	227.559	178.418	49.1403	0
    Cl:	300.955	327.341	-26.3864	0
    Cl(f):	204.222	217.328	-13.1062	0
    Cl(r):	96.7324	110.013	-13.2801	0
    CmPitch:	53.7449	53.6579	0.0869705	0
    CmRoll:	-150.477	-163.67	13.1932	0
    CmYaw:	77.0813	14.7477	62.3335	0
    Cs:	-1.30838e-18	1.21858e-18	-2.52696e-18	0
    Cs(f):	77.0813	14.7477	62.3335	0
    Cs(r):	-77.0813	-14.7477	-62.3335	0

    writing force and moment coefficient files.

forces forces write:
    Sum of forces
        Total    : (94.4245 184.335 8.01382e-19)
        Pressure : (18.066 200.496 -7.46381e-19)
        Viscous  : (76.3586 -16.1616 1.54776e-18)
    Sum of moments
        Total    : (-92.1673 47.2123 -32.9188)
        Pressure : (-100.248 9.03299 -32.8655)
        Viscous  : (8.08082 38.1793 -0.0532694)
    writing force and moment files.

Time = 5

smoothSolver:  Solving for Ux, Initial residual = 0.00321164, Final residual = 0.000291761, No Iterations 4
smoothSolver:  Solving for Uy, Initial residual = 0.00286412, Final residual = 0.000235385, No Iterations 4
GAMG:  Solving for p, Initial residual = 0.0499757, Final residual = 0.000448934, No Iterations 30
GAMG:  Solving for p, Initial residual = 0.00166293, Final residual = 1.6498e-05, No Iterations 81
time step continuity errors : sum local = 8.55446e-06, global = 3.36545e-08, cumulative = 0.000145627
smoothSolver:  Solving for nuTilda, Initial residual = 0.00412966, Final residual = 0.000397463, No Iterations 9
ExecutionTime = 0.39 s  ClockTime = 1 s

forceCoeffs forceCoeffs write:
    Coefficient	Total	Pressure	Viscous	Internal
    Cd:	137.144	36.3376	100.807	0
    Cd(f):	-125.393	-185.243	59.8501	0
    Cd(r):	262.537	221.58	40.9568	0
    Cl:	387.93	406.823	-18.8933	0
    Cl(f):	205.2	215.173	-9.97343	0
    Cl(r):	182.73	191.65	-8.91991	0
    CmPitch:	11.235	11.7617	-0.526761	0
    CmRoll:	-193.965	-203.412	9.44667	0
    CmYaw:	68.5722	18.1688	50.4035	0
    Cs:	-1.19e-18	1.25048e-18	-2.44047e-18	0
    Cs(f):	68.5722	18.1688	50.4035	0
    Cs(r):	-68.5722	-18.1688	-50.4035	0

    writing force and moment coefficient files.

forces forces write:
    Sum of forces
        Total    : (84.001 237.607 7.28873e-19)
        Pressure : (22.2568 249.179 -7.65916e-19)
        Viscous  : (61.7442 -11.5722 1.49479e-18)
    Sum of moments
        Total    : (-118.804 42.0005 -6.88143)
        Pressure : (-124.59 11.1284 -7.20407)
        Viscous  : (5.78608 30.8721 0.322641)
    writing force and moment files.

Time = 6

smoothSolver:  Solving for Ux, Initial residual = 0.00290666, Final residual = 0.000274885, No Iterations 4
smoothSolver:  Solving for Uy, Initial residual = 0.00283248, Final residual = 0.000242911, No Iterations 4
GAMG:  Solving for p, Initial residual = 0.0286008, Final residual = 0.00027419, No Iterations 28
GAMG:  Solving for p, Initial residual = 0.000923134, Final residual = 9.02983e-06, No Iterations 82
time step continuity errors : sum local = 4.4557e-06, global = 1.33332e-06, cumulative = 0.00014696
smoothSolver:  Solving for nuTilda, Initial residual = 0.00461028, Final residual = 0.000456819, No Iterations 9
ExecutionTime = 0.53 s  ClockTime = 1 s

forceCoeffs forceCoeffs write:
    Coefficient	Total	Pressure	Viscous	Internal
    Cd:	129.761	44.2012	85.5602	0
    Cd(f):	-162.118	-212.447	50.33	0
    Cd(r):	291.879	256.649	35.2302	0
    Cl:	453.996	469.096	-15.0997	0
    Cl(f):	211.919	220.081	-8.16238	0
    Cl(r):	242.078	249.015	-6.93734	0
    CmPitch:	-15.0797	-14.4672	-0.61252	0
    CmRoll:	-226.998	-234.548	7.54986	0
    CmYaw:	64.8807	22.1006	42.7801	0
    Cs:	-1.09402e-18	1.24167e-18	-2.3357e-18	0
    Cs(f):	64.8807	22.1006	42.7801	0
    Cs(r):	-64.8807	-22.1006	-42.7801	0

    writing force and moment coefficient files.

forces forces write:
    Sum of forces
        Total    : (79.4789 278.073 6.70089e-19)
        Pressure : (27.0732 287.321 -7.60526e-19)
        Viscous  : (52.4056 -9.24858 1.43061e-18)
    Sum of moments
        Total    : (-139.036 39.7394 9.23631)
        Pressure : (-143.661 13.5366 8.86114)
        Viscous  : (4.62429 26.2028 0.375169)
    writing force and moment files.

Time = 7

smoothSolver:  Solving for Ux, Initial residual = 0.00265419, Final residual = 0.000252167, No Iterations 4
smoothSolver:  Solving for Uy, Initial residual = 0.00280607, Final residual = 0.000245408, No Iterations 4
GAMG:  Solving for p, Initial residual = 0.0200399, Final residual = 0.000197838, No Iterations 33
GAMG:  Solving for p, Initial residual = 0.000668927, Final residual = 6.45098e-06, No Iterations 86
time step continuity errors : sum local = 3.09438e-06, global = -1.70195e-06, cumulative = 0.000145258
smoothSolver:  Solving for nuTilda, Initial residual = 0.00589662, Final residual = 0.000517421, No Iterations 10
ExecutionTime = 0.66 s  ClockTime = 1 s

forceCoeffs forceCoeffs write:
    Coefficient	Total	Pressure	Viscous	Internal
    Cd:	125.285	50.3055	74.9793	0
    Cd(f):	-191.829	-235.731	43.9025	0
    Cd(r):	317.114	286.037	31.0769	0
    Cl:	508.942	521.768	-12.8256	0
    Cl(f):	216.952	223.941	-6.98851	0
    Cl(r):	291.99	297.827	-5.83705	0
    CmPitch:	-37.5187	-36.943	-0.575734	0
    CmRoll:	-254.471	-260.884	6.41278	0
    CmYaw:	62.6424	25.1527	37.4897	0
    Cs:	-1.06163e-18	1.20935e-18	-2.27098e-18	0
    Cs(f):	62.6424	25.1527	37.4897	0
    Cs(r):	-62.6424	-25.1527	-37.4897	0

    writing force and moment coefficient files.

forces forces write:
    Sum of forces
        Total    : (76.7369 311.727 6.50247e-19)
        Pressure : (30.8121 319.583 -7.40728e-19)
        Viscous  : (45.9248 -7.85566 1.39098e-18)
    Sum of moments
        Total    : (-155.864 38.3685 22.9802)
        Pressure : (-159.791 15.4061 22.6276)
        Viscous  : (3.92783 22.9624 0.352637)
    writing force and moment files.

Time = 8

smoothSolver:  Solving for Ux, Initial residual = 0.00247198, Final residual = 0.000232921, No Iterations 4
smoothSolver:  Solving for Uy, Initial residual = 0.00279133, Final residual = 0.000246236, No Iterations 4
GAMG:  Solving for p, Initial residual = 0.0145904, Final residual = 0.000140832, No Iterations 36
GAMG:  Solving for p, Initial residual = 0.000527787, Final residual = 4.88789e-06, No Iterations 78
time step continuity errors : sum local = 2.3158e-06, global = -8.85736e-07, cumulative = 0.000144373
smoothSolver:  Solving for nuTilda, Initial residual = 0.00897423, Final residual = 0.000796621, No Iterations 10
ExecutionTime = 0.8 s  ClockTime = 1 s

forceCoeffs forceCoeffs write:
    Coefficient	Total	Pressure	Viscous	Internal
    Cd:	122.278	55.1598	67.1178	0
    Cd(f):	-217.794	-257.001	39.2067	0
    Cd(r):	340.072	312.16	27.9111	0
    Cl:	557.865	569.161	-11.2956	0
    Cl(f):	220.82	226.981	-6.16078	0
    Cl(r):	337.045	342.18	-5.13481	0
    CmPitch:	-58.1125	-57.5995	-0.512983	0
    CmRoll:	-278.933	-284.581	5.6478	0
    CmYaw:	61.1388	27.5799	33.5589	0
    Cs:	-1.04609e-18	1.15194e-18	-2.19803e-18	0
    Cs(f):	61.1388	27.5799	33.5589	0
    Cs(r):	-61.1388	-27.5799	-33.5589	0

    writing force and moment coefficient files.

forces forces write:
    Sum of forces
        Total    : (74.895 341.693 6.40729e-19)
        Pressure : (33.7854 348.611 -7.05565e-19)
        Viscous  : (41.1096 -6.91855 1.34629e-18)
    Sum of moments
        Total    : (-170.846 37.4475 35.5939)
        Pressure : (-174.306 16.8927 35.2797)
        Viscous  : (3.45928 20.5548 0.314202)
    writing force and moment files.

Time = 9

smoothSolver:  Solving for Ux, Initial residual = 0.00233595, Final residual = 0.000217332, No Iterations 4
smoothSolver:  Solving for Uy, Initial residual = 0.00278427, Final residual = 0.000247653, No Iterations 4
GAMG:  Solving for p, Initial residual = 0.0109564, Final residual = 0.000108801, No Iterations 41
GAMG:  Solving for p, Initial residual = 0.000443736, Final residual = 4.36944e-06, No Iterations 74
time step continuity errors : sum local = 2.05959e-06, global = 4.64175e-07, cumulative = 0.000144837
smoothSolver:  Solving for nuTilda, Initial residual = 0.0198919, Final residual = 0.00177573, No Iterations 10
ExecutionTime = 0.92 s  ClockTime = 1 s

forceCoeffs forceCoeffs write:
    Coefficient	Total	Pressure	Viscous	Internal
    Cd:	120.102	59.1171	60.9851	0
    Cd(f):	-241.006	-276.586	35.5798	0
    Cd(r):	361.108	335.703	25.4052	0
    Cl:	602.115	612.289	-10.1746	0
    Cl(f):	223.975	229.513	-5.53814	0
    Cl(r):	378.14	382.776	-4.63642	0
    CmPitch:	-77.0827	-76.6319	-0.450858	0
    CmRoll:	-301.057	-306.145	5.08728	0
    CmYaw:	60.0511	29.5585	30.4925	0
    Cs:	-1.05472e-18	1.07663e-18	-2.13136e-18	0
    Cs(f):	60.0511	29.5585	30.4925	0
    Cs(r):	-60.0511	-29.5585	-30.4925	0

    writing force and moment coefficient files.

forces forces write:
    Sum of forces
        Total    : (73.5626 368.795 6.46017e-19)
        Pressure : (36.2092 375.027 -6.59438e-19)
        Viscous  : (37.3533 -6.23192 1.30546e-18)
    Sum of moments
        Total    : (-184.398 36.7813 47.2132)
        Pressure : (-187.514 18.1046 46.937)
        Viscous  : (3.11596 18.6767 0.276151)
    writing force and moment files.

Time = 10

smoothSolver:  Solving for Ux, Initial residual = 0.0022298, Final residual = 0.000204208, No Iterations 4
smoothSolver:  Solving for Uy, Initial residual = 0.00277569, Final residual = 0.000249476, No Iterations 4
GAMG:  Solving for p, Initial residual = 0.00865253, Final residual = 8.48822e-05, No Iterations 45
GAMG:  Solving for p, Initial residual = 0.000385296, Final residual = 3.64919e-06, No Iterations 73
time step continuity errors : sum local = 1.71615e-06, global = -2.19595e-07, cumulative = 0.000144617
smoothSolver:  Solving for nuTilda, Initial residual = 0.0204468, Final residual = 0.00182943, No Iterations 10
ExecutionTime = 1.02 s  ClockTime = 1 s

forceCoeffs forceCoeffs write:
    Coefficient	Total	Pressure	Viscous	Internal
    Cd:	118.442	62.4119	56.0298	0
    Cd(f):	-261.984	-294.65	32.6658	0
    Cd(r):	380.425	357.061	23.364	0
    Cl:	642.409	651.711	-9.30178	0
    Cl(f):	226.659	231.707	-5.04734	0
    Cl(r):	415.75	420.004	-4.25444	0
    CmPitch:	-94.5453	-94.1488	-0.396453	0
    CmRoll:	-321.205	-325.855	4.65089	0
    CmYaw:	59.2209	31.206	28.0149	0
    Cs:	-1.085e-18	9.96517e-19	-2.08152e-18	0
    Cs(f):	59.2209	31.206	28.0149	0
    Cs(r):	-59.2209	-31.206	-28.0149	0

    writing force and moment coefficient files.

forces forces write:
    Sum of forces
        Total    : (72.5456 393.476 6.64562e-19)
        Pressure : (38.2273 399.173 -6.10367e-19)
        Viscous  : (34.3182 -5.69734 1.27493e-18)
    Sum of moments
        Total    : (-196.738 36.2728 57.909)
        Pressure : (-199.586 19.1137 57.6662)
        Viscous  : (2.84867 17.1591 0.242828)
    writing force and moment files.

Time = 11

smoothSolver:  Solving for Ux, Initial residual = 0.00214483, Final residual = 0.0001927, No Iterations 4
smoothSolver:  Solving for Uy, Initial residual = 0.00276903, Final residual = 0.000251649, No Iterations 4
GAMG:  Solving for p, Initial residual = 0.00715527, Final residual = 6.82949e-05, No Iterations 48
GAMG:  Solving for p, Initial residual = 0.00034311, Final residual = 3.34201e-06, No Iterations 71
time step continuity errors : sum local = 1.5705e-06, global = 2.64516e-07, cumulative = 0.000144882
smoothSolver:  Solving for nuTilda, Initial residual = 0.00903823, Final residual = 0.000809309, No Iterations 10
ExecutionTime = 1.11 s  ClockTime = 2 s

forceCoeffs forceCoeffs write:
    Coefficient	Total	Pressure	Viscous	Internal
    Cd:	117.077	65.1576	51.9198	0
    Cd(f):	-281.084	-311.341	30.2562	0
    Cd(r):	398.162	376.498	21.6636	0
    Cl:	679.246	687.839	-8.59254	0
    Cl(f):	229.019	233.666	-4.64709	0
    Cl(r):	450.228	454.173	-3.94545	0
    CmPitch:	-110.605	-110.254	-0.350821	0
    CmRoll:	-339.623	-343.919	4.29627	0
    CmYaw:	58.5387	32.5788	25.9599	0
    Cs:	-1.12558e-18	9.24614e-19	-2.05019e-18	0
    Cs(f):	58.5387	32.5788	25.9599	0
    Cs(r):	-58.5387	-32.5788	-25.9599	0

    writing force and moment coefficient files.

forces forces write:
    Sum of forces
        Total    : (71.7099 416.038 6.89416e-19)
        Pressure : (39.909 421.301 -5.66326e-19)
        Viscous  : (31.8009 -5.26293 1.25574e-18)
    Sum of moments
        Total    : (-208.019 35.855 67.7453)
        Pressure : (-210.651 19.9545 67.5304)
        Viscous  : (2.63147 15.9004 0.214878)
    writing force and moment files.

Time = 12

smoothSolver:  Solving for Ux, Initial residual = 0.00207352, Final residual = 0.000182495, No Iterations 4
smoothSolver:  Solving for Uy, Initial residual = 0.00276782, Final residual = 0.000254392, No Iterations 4
GAMG:  Solving for p, Initial residual = 0.00622503, Final residual = 6.11909e-05, No Iterations 49
GAMG:  Solving for p, Initial residual = 0.000315658, Final residual = 3.11731e-06, No Iterations 68
time step continuity errors : sum local = 1.46495e-06, global = 2.5575e-07, cumulative = 0.000145137
smoothSolver:  Solving for nuTilda, Initial residual = 0.00576794, Final residual = 0.000513765, No Iterations 10
ExecutionTime = 1.2 s  ClockTime = 2 s

forceCoeffs forceCoeffs write:
    Coefficient	Total	Pressure	Viscous	Internal
    Cd:	115.864	67.4225	48.4415	0
    Cd(f):	-298.575	-326.795	28.2198	0
    Cd(r):	414.439	394.218	20.2217	0
    Cl:	713.015	721.013	-7.99814	0
    Cl(f):	231.143	235.455	-4.31218	0
    Cl(r):	481.872	485.558	-3.68595	0
    CmPitch:	-125.365	-125.052	-0.313115	0
    CmRoll:	-356.507	-360.506	3.99907	0
    CmYaw:	57.932	33.7112	24.2207	0
    Cs:	-1.16662e-18	8.68884e-19	-2.03551e-18	0
    Cs(f):	57.932	33.7112	24.2207	0
    Cs(r):	-57.932	-33.7112	-24.2207	0

    writing force and moment coefficient files.

forces forces write:
    Sum of forces
        Total    : (70.9667 436.721 7.14556e-19)
        Pressure : (41.2963 441.62 -5.32192e-19)
        Viscous  : (29.6704 -4.89886 1.24675e-18)
    Sum of moments
        Total    : (-218.361 35.4833 76.7859)
        Pressure : (-220.81 20.6481 76.5941)
        Viscous  : (2.44943 14.8352 0.191783)
    writing force and moment files.

Time = 13

smoothSolver:  Solving for Ux, Initial residual = 0.00201254, Final residual = 0.000173418, No Iterations 4
smoothSolver:  Solving for Uy, Initial residual = 0.0027707, Final residual = 0.000257524, No Iterations 4
GAMG:  Solving for p, Initial residual = 0.00563936, Final residual = 5.55151e-05, No Iterations 48
GAMG:  Solving for p, Initial residual = 0.000291133, Final residual = 2.80815e-06, No Iterations 66
time step continuity errors : sum local = 1.32057e-06, global = -2.07154e-07, cumulative = 0.00014493
smoothSolver:  Solving for nuTilda, Initial residual = 0.00424434, Final residual = 0.00037524, No Iterations 10
ExecutionTime = 1.28 s  ClockTime = 2 s

forceCoeffs forceCoeffs write:
    Coefficient	Total	Pressure	Viscous	Internal
    Cd:	114.742	69.2916	45.4503	0
    Cd(f):	-314.608	-341.078	26.4695	0
    Cd(r):	429.35	410.369	18.9808	0
    Cl:	743.958	751.447	-7.48864	0
    Cl(f):	233.054	237.081	-4.02631	0
    Cl(r):	510.904	514.366	-3.46233	0
    CmPitch:	-138.925	-138.643	-0.281992	0
    CmRoll:	-371.979	-375.723	3.74432	0
    CmYaw:	57.371	34.6458	22.7251	0
    Cs:	-1.204e-18	8.30403e-19	-2.0344e-18	0
    Cs(f):	57.371	34.6458	22.7251	0
    Cs(r):	-57.371	-34.6458	-22.7251	0

    writing force and moment coefficient files.

forces forces write:
    Sum of forces
        Total    : (70.2794 455.674 7.37447e-19)
        Pressure : (42.4411 460.261 -5.08622e-19)
        Viscous  : (27.8383 -4.58679 1.24607e-18)
    Sum of moments
        Total    : (-227.837 35.1397 85.0914)
        Pressure : (-230.131 21.2206 84.9187)
        Viscous  : (2.2934 13.9191 0.17272)
    writing force and moment files.

Time = 14

smoothSolver:  Solving for Ux, Initial residual = 0.0019591, Final residual = 0.000165455, No Iterations 4
smoothSolver:  Solving for Uy, Initial residual = 0.00277894, Final residual = 0.00026114, No Iterations 4
GAMG:  Solving for p, Initial residual = 0.00532925, Final residual = 5.24716e-05, No Iterations 47
GAMG:  Solving for p, Initial residual = 0.000272972, Final residual = 2.66445e-06, No Iterations 64
time step continuity errors : sum local = 1.2533e-06, global = 1.69806e-07, cumulative = 0.0001451
smoothSolver:  Solving for nuTilda, Initial residual = 0.00336683, Final residual = 0.000295056, No Iterations 10
ExecutionTime = 1.38 s  ClockTime = 2 s

forceCoeffs forceCoeffs write:
    Coefficient	Total	Pressure	Viscous	Internal
    Cd:	113.68	70.8358	42.8442	0
    Cd(f):	-329.309	-354.253	24.9444	0
    Cd(r):	442.989	425.089	17.8999	0
    Cl:	772.297	779.342	-7.04451	0
    Cl(f):	234.773	238.552	-3.77845	0
    Cl(r):	537.524	540.79	-3.26605	0
    CmPitch:	-151.375	-151.119	-0.256201	0
    CmRoll:	-386.149	-389.671	3.52225	0
    CmYaw:	56.84	35.4179	21.4221	0
    Cs:	-1.23629e-18	8.03169e-19	-2.03946e-18	0
    Cs(f):	56.84	35.4179	21.4221	0
    Cs(r):	-56.84	-35.4179	-21.4221	0

    writing force and moment coefficient files.

forces forces write:
    Sum of forces
        Total    : (69.629 473.032 7.57229e-19)
        Pressure : (43.3869 477.347 -4.91941e-19)
        Viscous  : (26.2421 -4.31476 1.24917e-18)
    Sum of moments
        Total    : (-236.516 34.8145 92.7173)
        Pressure : (-238.673 21.6935 92.5604)
        Viscous  : (2.15738 13.1211 0.156923)
    writing force and moment files.

Time = 15

smoothSolver:  Solving for Ux, Initial residual = 0.00191043, Final residual = 0.000158482, No Iterations 4
smoothSolver:  Solving for Uy, Initial residual = 0.00279231, Final residual = 0.000265172, No Iterations 4
GAMG:  Solving for p, Initial residual = 0.00520957, Final residual = 5.18758e-05, No Iterations 44
GAMG:  Solving for p, Initial residual = 0.000257479, Final residual = 2.46835e-06, No Iterations 65
time step continuity errors : sum local = 1.16129e-06, global = 1.21822e-07, cumulative = 0.000145222
smoothSolver:  Solving for nuTilda, Initial residual = 0.00281768, Final residual = 0.000242594, No Iterations 10
ExecutionTime = 1.46 s  ClockTime = 2 s

forceCoeffs forceCoeffs write:
    Coefficient	Total	Pressure	Viscous	Internal
    Cd:	112.667	72.1175	40.5494	0
    Cd(f):	-342.805	-366.406	23.6008	0
    Cd(r):	455.472	438.524	16.9486	0
    Cl:	798.278	804.93	-6.65226	0
    Cl(f):	236.323	239.883	-3.5608	0
    Cl(r):	561.955	565.047	-3.09147	0
    CmPitch:	-162.816	-162.582	-0.234667	0
    CmRoll:	-399.139	-402.465	3.32613	0
    CmYaw:	56.3334	36.0587	20.2747	0
    Cs:	-1.26473e-18	7.82788e-19	-2.04752e-18	0
    Cs(f):	56.3334	36.0587	20.2747	0
    Cs(r):	-56.3334	-36.0587	-20.2747	0

    writing force and moment coefficient files.

forces forces write:
    Sum of forces
        Total    : (69.0085 488.945 7.74649e-19)
        Pressure : (44.172 493.02 -4.79458e-19)
        Viscous  : (24.8365 -4.07451 1.25411e-18)
    Sum of moments
        Total    : (-244.473 34.5042 99.7249)
        Pressure : (-246.51 22.086 99.5812)
        Viscous  : (2.03726 12.4182 0.143733)
    writing force and moment files.

Time = 16

smoothSolver:  Solving for Ux, Initial residual = 0.0018657, Final residual = 0.000152429, No Iterations 4
smoothSolver:  Solving for Uy, Initial residual = 0.00281195, Final residual = 0.000269765, No Iterations 4
GAMG:  Solving for p, Initial residual = 0.00518216, Final residual = 4.78785e-05, No Iterations 42
GAMG:  Solving for p, Initial residual = 0.000242769, Final residual = 2.36989e-06, No Iterations 64
time step continuity errors : sum local = 1.11434e-06, global = -1.13435e-07, cumulative = 0.000145108
smoothSolver:  Solving for nuTilda, Initial residual = 0.00243662, Final residual = 0.000204728, No Iterations 10
ExecutionTime = 1.55 s  ClockTime = 2 s

forceCoeffs forceCoeffs write:
    Coefficient	Total	Pressure	Viscous	Internal
    Cd:	111.693	73.1826	38.51	0
    Cd(f):	-355.224	-377.63	22.4061	0
    Cd(r):	466.916	450.812	16.1039	0
    Cl:	822.14	828.442	-6.3022	0
    Cl(f):	237.74	241.107	-3.36764	0
    Cl(r):	584.4	587.334	-2.93456	0
    CmPitch:	-173.33	-173.113	-0.216544	0
    CmRoll:	-411.07	-414.221	3.1511	0
    CmYaw:	55.8463	36.5913	19.255	0
    Cs:	-1.2901e-18	7.66574e-19	-2.05668e-18	0
    Cs(f):	55.8463	36.5913	19.255	0
    Cs(r):	-55.8463	-36.5913	-19.255	0

    writing force and moment coefficient files.

forces forces write:
    Sum of forces
        Total    : (68.4117 503.561 7.90188e-19)
        Pressure : (44.8243 507.421 -4.69527e-19)
        Viscous  : (23.5874 -3.8601 1.25971e-18)
    Sum of moments
        Total    : (-251.78 34.2059 106.165)
        Pressure : (-253.71 22.4122 106.032)
        Viscous  : (1.93005 11.7937 0.132633)
    writing force and moment files.

Time = 17

smoothSolver:  Solving for Ux, Initial residual = 0.0018244, Final residual = 0.000147269, No Iterations 4
smoothSolver:  Solving for Uy, Initial residual = 0.00283832, Final residual = 0.000274998, No Iterations 4
GAMG:  Solving for p, Initial residual = 0.00525799, Final residual = 5.17499e-05, No Iterations 39
GAMG:  Solving for p, Initial residual = 0.000236372, Final residual = 2.31919e-06, No Iterations 65
time step continuity errors : sum local = 1.08952e-06, global = 9.60185e-08, cumulative = 0.000145204
smoothSolver:  Solving for nuTilda, Initial residual = 0.00217572, Final residual = 0.00021097, No Iterations 9
ExecutionTime = 1.66 s  ClockTime = 2 s

forceCoeffs forceCoeffs write:
    Coefficient	Total	Pressure	Viscous	Internal
    Cd:	110.757	74.0733	36.6835	0
    Cd(f):	-366.685	-388.02	21.3353	0
    Cd(r):	477.442	462.094	15.3482	0
    Cl:	844.127	850.114	-5.98708	0
    Cl(f):	239.054	242.249	-3.19469	0
    Cl(r):	605.073	607.865	-2.79239	0
    CmPitch:	-183.009	-182.808	-0.201153	0
    CmRoll:	-422.064	-425.057	2.99354	0
    CmYaw:	55.3784	37.0367	18.3417	0
    Cs:	-1.31287e-18	7.52996e-19	-2.06587e-18	0
    Cs(f):	55.3784	37.0367	18.3417	0
    Cs(r):	-55.3784	-37.0367	-18.3417	0

    writing force and moment coefficient files.

forces forces write:
    Sum of forces
        Total    : (67.8385 517.028 8.04136e-19)
        Pressure : (45.3699 520.695 -4.6121e-19)
        Viscous  : (22.4686 -3.66709 1.26535e-18)
    Sum of moments
        Total    : (-258.514 33.9193 112.093)
        Pressure : (-260.347 22.6849 111.97)
        Viscous  : (1.83354 11.2343 0.123206)
    writing force and moment files.

Time = 18

smoothSolver:  Solving for Ux, Initial residual = 0.00178578, Final residual = 0.000143014, No Iterations 4
smoothSolver:  Solving for Uy, Initial residual = 0.00287165, Final residual = 0.000280424, No Iterations 4
GAMG:  Solving for p, Initial residual = 0.00534445, Final residual = 4.89661e-05, No Iterations 39
GAMG:  Solving for p, Initial residual = 0.000226427, Final residual = 2.1673e-06, No Iterations 65
time step continuity errors : sum local = 1.01654e-06, global = 9.08748e-08, cumulative = 0.000145295
smoothSolver:  Solving for nuTilda, Initial residual = 0.00198649, Final residual = 0.000187618, No Iterations 9
ExecutionTime = 1.78 s  ClockTime = 2 s

forceCoeffs forceCoeffs write:
    Coefficient	Total	Pressure	Viscous	Internal
    Cd:	109.857	74.8207	35.0366	0
    Cd(f):	-377.301	-397.67	20.369	0
    Cd(r):	487.158	472.49	14.6676	0
    Cl:	864.459	870.16	-5.70135	0
    Cl(f):	240.299	243.338	-3.03863	0
    Cl(r):	624.159	626.822	-2.66271	0
    CmPitch:	-191.93	-191.742	-0.187962	0
    CmRoll:	-432.229	-435.08	2.85067	0
    CmYaw:	54.9287	37.4104	17.5183	0
    Cs:	-1.33343e-18	7.40979e-19	-2.07441e-18	0
    Cs(f):	54.9287	37.4104	17.5183	0
    Cs(r):	-54.9287	-37.4104	-17.5183	0

    writing force and moment coefficient files.

forces forces write:
    Sum of forces
        Total    : (67.2876 529.481 8.16728e-19)
        Pressure : (45.8277 532.973 -4.5385e-19)
        Viscous  : (21.4599 -3.49207 1.27058e-18)
    Sum of moments
        Total    : (-264.74 33.6438 117.557)
        Pressure : (-266.486 22.9139 117.442)
        Viscous  : (1.74604 10.73 0.115127)
    writing force and moment files.

Time = 19

smoothSolver:  Solving for Ux, Initial residual = 0.00175189, Final residual = 0.00013977, No Iterations 4
smoothSolver:  Solving for Uy, Initial residual = 0.00290819, Final residual = 0.000285881, No Iterations 4
GAMG:  Solving for p, Initial residual = 0.00542213, Final residual = 5.01825e-05, No Iterations 37
GAMG:  Solving for p, Initial residual = 0.000221416, Final residual = 2.14851e-06, No Iterations 65
time step continuity errors : sum local = 1.00583e-06, global = 1.03874e-07, cumulative = 0.000145399
smoothSolver:  Solving for nuTilda, Initial residual = 0.00183386, Final residual = 0.000169192, No Iterations 9
ExecutionTime = 1.89 s  ClockTime = 2 s

forceCoeffs forceCoeffs write:
    Coefficient	Total	Pressure	Viscous	Internal
    Cd:	108.99	75.4475	33.5429	0
    Cd(f):	-387.17	-406.662	19.4917	0
    Cd(r):	496.16	482.109	14.0511	0
    Cl:	883.33	888.771	-5.44061	0
    Cl(f):	241.506	244.403	-2.89688	0
    Cl(r):	641.824	644.368	-2.54373	0
    CmPitch:	-200.159	-199.982	-0.176574	0
    CmRoll:	-441.665	-444.385	2.72031	0
    CmYaw:	54.4952	37.7237	16.7714	0
    Cs:	-1.35187e-18	7.29966e-19	-2.08183e-18	0
    Cs(f):	54.4952	37.7237	16.7714	0
    Cs(r):	-54.4952	-37.7237	-16.7714	0

    writing force and moment coefficient files.

forces forces write:
    Sum of forces
        Total    : (66.7566 541.04 8.2802e-19)
        Pressure : (46.2116 544.372 -4.47104e-19)
        Viscous  : (20.545 -3.33238 1.27512e-18)
    Sum of moments
        Total    : (-270.52 33.3783 122.597)
        Pressure : (-272.186 23.1058 122.489)
        Viscous  : (1.66619 10.2725 0.108152)
    writing force and moment files.

Time = 20

smoothSolver:  Solving for Ux, Initial residual = 0.00172212, Final residual = 0.000137618, No Iterations 4
smoothSolver:  Solving for Uy, Initial residual = 0.00294672, Final residual = 0.000291246, No Iterations 4
GAMG:  Solving for p, Initial residual = 0.00543995, Final residual = 5.07824e-05, No Iterations 35
GAMG:  Solving for p, Initial residual = 0.000216956, Final residual = 2.09991e-06, No Iterations 65
time step continuity errors : sum local = 9.80727e-07, global = 1.18746e-07, cumulative = 0.000145518
smoothSolver:  Solving for nuTilda, Initial residual = 0.00170748, Final residual = 0.00015444, No Iterations 9
ExecutionTime = 2.02 s  ClockTime = 2 s

forceCoeffs forceCoeffs write:
    Coefficient	Total	Pressure	Viscous	Internal
    Cd:	108.156	75.9745	32.181	0
    Cd(f):	-396.387	-415.079	18.6912	0
    Cd(r):	504.543	491.053	13.4898	0
    Cl:	900.93	906.132	-5.20135	0
    Cl(f):	242.705	245.472	-2.76737	0
    Cl(r):	658.225	660.659	-2.43398	0
    CmPitch:	-207.76	-207.593	-0.166692	0
    CmRoll:	-450.465	-453.066	2.60068	0
    CmYaw:	54.0778	37.9873	16.0905	0
    Cs:	-1.36857e-18	7.19395e-19	-2.08797e-18	0
    Cs(f):	54.0778	37.9873	16.0905	0
    Cs(r):	-54.0778	-37.9873	-16.0905	0

    writing force and moment coefficient files.

forces forces write:
    Sum of forces
        Total    : (66.2453 551.82 8.38251e-19)
        Pressure : (46.5344 555.006 -4.40629e-19)
        Viscous  : (19.7109 -3.18583 1.27888e-18)
    Sum of moments
        Total    : (-275.91 33.1226 127.253)
        Pressure : (-277.503 23.2672 127.151)
        Viscous  : (1.59291 9.85544 0.102099)
    writing force and moment files.

Time = 21

smoothSolver:  Solving for Ux, Initial residual = 0.00169494, Final residual = 0.000136138, No Iterations 4
smoothSolver:  Solving for Uy, Initial residual = 0.00298633, Final residual = 0.000296471, No Iterations 4
GAMG:  Solving for p, Initial residual = 0.00550117, Final residual = 5.11227e-05, No Iterations 33
GAMG:  Solving for p, Initial residual = 0.000213876, Final residual = 2.13736e-06, No Iterations 64
time step continuity errors : sum local = 9.95258e-07, global = -1.4851e-07, cumulative = 0.000145369
smoothSolver:  Solving for nuTilda, Initial residual = 0.00161027, Final residual = 0.000142438, No Iterations 9
ExecutionTime = 2.12 s  ClockTime = 3 s

forceCoeffs forceCoeffs write:
    Coefficient	Total	Pressure	Viscous	Internal
    Cd:	107.346	76.4121	30.9339	0
    Cd(f):	-405.032	-422.989	17.9573	0
    Cd(r):	512.377	499.401	12.9766	0
    Cl:	917.409	922.39	-4.98075	0
    Cl(f):	243.918	246.567	-2.6484	0
    Cl(r):	673.491	675.823	-2.33235	0
    CmPitch:	-214.786	-214.628	-0.158029	0
    CmRoll:	-458.705	-461.195	2.49037	0
    CmYaw:	53.673	38.206	15.467	0
    Cs:	-1.38387e-18	7.0892e-19	-2.09279e-18	0
    Cs(f):	53.673	38.206	15.467	0
    Cs(r):	-53.673	-38.206	-15.467	0

    writing force and moment coefficient files.

forces forces write:
    Sum of forces
        Total    : (65.7494 561.913 8.47623e-19)
        Pressure : (46.8024 564.964 -4.34213e-19)
        Viscous  : (18.947 -3.05071 1.28184e-18)
    Sum of moments
        Total    : (-280.957 32.8747 131.556)
        Pressure : (-282.482 23.4012 131.46)
        Viscous  : (1.52535 9.47351 0.0967928)
    writing force and moment files.

Time = 22

smoothSolver:  Solving for Ux, Initial residual = 0.00166915, Final residual = 0.000134907, No Iterations 4
smoothSolver:  Solving for Uy, Initial residual = 0.00302642, Final residual = 0.0003015, No Iterations 4
GAMG:  Solving for p, Initial residual = 0.0055529, Final residual = 5.11424e-05, No Iterations 31
GAMG:  Solving for p, Initial residual = 0.000212345, Final residual = 2.08026e-06, No Iterations 64
time step continuity errors : sum local = 9.65199e-07, global = -1.56399e-07, cumulative = 0.000145213
smoothSolver:  Solving for nuTilda, Initial residual = 0.00153213, Final residual = 0.00013242, No Iterations 9
ExecutionTime = 2.21 s  ClockTime = 3 s

forceCoeffs forceCoeffs write:
    Coefficient	Total	Pressure	Viscous	Internal
    Cd:	106.559	76.7715	29.7872	0
    Cd(f):	-413.175	-430.457	17.2818	0
    Cd(r):	519.733	507.228	12.5054	0
    Cl:	932.908	937.685	-4.77646	0
    Cl(f):	245.167	247.705	-2.53862	0
    Cl(r):	687.741	689.979	-2.23784	0
    CmPitch:	-221.287	-221.137	-0.150387	0
    CmRoll:	-466.454	-468.842	2.38823	0
    CmYaw:	53.2793	38.3857	14.8936	0
    Cs:	-1.39812e-18	6.98361e-19	-2.09649e-18	0
    Cs(f):	53.2793	38.3857	14.8936	0
    Cs(r):	-53.2793	-38.3857	-14.8936	0

    writing force and moment coefficient files.

forces forces write:
    Sum of forces
        Total    : (65.2672 571.406 8.56351e-19)
        Pressure : (47.0225 574.332 -4.27746e-19)
        Viscous  : (18.2446 -2.92558 1.2841e-18)
    Sum of moments
        Total    : (-285.703 32.6336 135.539)
        Pressure : (-287.166 23.5113 135.446)
        Viscous  : (1.46279 9.12232 0.0921121)
    writing force and moment files.

Time = 23

smoothSolver:  Solving for Ux, Initial residual = 0.00164308, Final residual = 0.000133824, No Iterations 4
smoothSolver:  Solving for Uy, Initial residual = 0.00306676, Final residual = 0.000306389, No Iterations 4
GAMG:  Solving for p, Initial residual = 0.00562877, Final residual = 5.11274e-05, No Iterations 30
GAMG:  Solving for p, Initial residual = 0.000210038, Final residual = 2.02326e-06, No Iterations 64
time step continuity errors : sum local = 9.35122e-07, global = -1.65821e-07, cumulative = 0.000145047
smoothSolver:  Solving for nuTilda, Initial residual = 0.00146527, Final residual = 0.000123946, No Iterations 9
ExecutionTime = 2.28 s  ClockTime = 3 s

forceCoeffs forceCoeffs write:
    Coefficient	Total	Pressure	Viscous	Internal
    Cd:	105.789	77.06	28.7289	0
    Cd(f):	-420.88	-437.538	16.6577	0
    Cd(r):	526.669	514.598	12.0712	0
    Cl:	947.549	952.136	-4.5865	0
    Cl(f):	246.465	248.902	-2.43693	0
    Cl(r):	701.084	703.233	-2.14957	0
    CmPitch:	-227.309	-227.165	-0.143677	0
    CmRoll:	-473.775	-476.068	2.29325	0
    CmYaw:	52.8944	38.53	14.3645	0
    Cs:	-1.41141e-18	6.87501e-19	-2.09891e-18	0
    Cs(f):	52.8944	38.53	14.3645	0
    Cs(r):	-52.8944	-38.53	-14.3645	0

    writing force and moment coefficient files.

forces forces write:
    Sum of forces
        Total    : (64.7957 580.374 8.6449e-19)
        Pressure : (47.1992 583.183 -4.21094e-19)
        Viscous  : (17.5965 -2.80923 1.28558e-18)
    Sum of moments
        Total    : (-290.187 32.3978 139.227)
        Pressure : (-291.592 23.5996 139.139)
        Viscous  : (1.40462 8.79824 0.088002)
    writing force and moment files.

Time = 24

smoothSolver:  Solving for Ux, Initial residual = 0.00161782, Final residual = 0.000132808, No Iterations 4
smoothSolver:  Solving for Uy, Initial residual = 0.00310667, Final residual = 0.000208804, No Iterations 5
GAMG:  Solving for p, Initial residual = 0.00579275, Final residual = 5.40402e-05, No Iterations 26
GAMG:  Solving for p, Initial residual = 0.000202404, Final residual = 1.97651e-06, No Iterations 63
time step continuity errors : sum local = 9.17539e-07, global = 1.9896e-07, cumulative = 0.000145246
smoothSolver:  Solving for nuTilda, Initial residual = 0.00141467, Final residual = 0.000116852, No Iterations 9
ExecutionTime = 2.35 s  ClockTime = 3 s

forceCoeffs forceCoeffs write:
    Coefficient	Total	Pressure	Viscous	Internal
    Cd:	105.193	77.4444	27.749	0
    Cd(f):	-427.871	-443.947	16.0759	0
    Cd(r):	533.065	521.391	11.6731	0
    Cl:	960.936	965.338	-4.40277	0
    Cl(f):	248.127	250.469	-2.342	0
    Cl(r):	712.808	714.869	-2.06078	0
    CmPitch:	-232.34	-232.2	-0.140609	0
    CmRoll:	-480.468	-482.669	2.20139	0
    CmYaw:	52.5967	38.7222	13.8745	0
    Cs:	-1.42354e-18	6.78506e-19	-2.10205e-18	0
    Cs(f):	52.5967	38.7222	13.8745	0
    Cs(r):	-52.5967	-38.7222	-13.8745	0

    writing force and moment coefficient files.

forces forces write:
    Sum of forces
        Total    : (64.431 588.573 8.71921e-19)
        Pressure : (47.4347 591.27 -4.15585e-19)
        Viscous  : (16.9963 -2.6967 1.28751e-18)
    Sum of moments
        Total    : (-294.287 32.2155 142.309)
        Pressure : (-295.635 23.7174 142.222)
        Viscous  : (1.34835 8.49814 0.086123)
    writing force and moment files.

Time = 25

smoothSolver:  Solving for Ux, Initial residual = 0.00159862, Final residual = 0.000132378, No Iterations 4
smoothSolver:  Solving for Uy, Initial residual = 0.00313453, Final residual = 0.000312237, No Iterations 4
GAMG:  Solving for p, Initial residual = 0.00565564, Final residual = 5.57555e-05, No Iterations 30
GAMG:  Solving for p, Initial residual = 0.000224267, Final residual = 2.15312e-06, No Iterations 64
time step continuity errors : sum local = 9.89471e-07, global = -2.12959e-07, cumulative = 0.000145033
smoothSolver:  Solving for nuTilda, Initial residual = 0.00137227, Final residual = 0.000134997, No Iterations 8
ExecutionTime = 2.42 s  ClockTime = 3 s

forceCoeffs forceCoeffs write:
    Coefficient	Total	Pressure	Viscous	Internal
    Cd:	104.321	77.4839	26.8373	0
    Cd(f):	-435.234	-450.775	15.5415	0
    Cd(r):	539.555	528.259	11.2958	0
    Cl:	974.788	979.034	-4.2457	0
    Cl(f):	249.349	251.603	-2.25377	0
    Cl(r):	725.439	727.431	-1.99193	0
    CmPitch:	-238.045	-237.914	-0.130918	0
    CmRoll:	-487.394	-489.517	2.12285	0
    CmYaw:	52.1606	38.742	13.4187	0
    Cs:	-1.43674e-18	6.6469e-19	-2.10143e-18	0
    Cs(f):	52.1606	38.742	13.4187	0
    Cs(r):	-52.1606	-38.742	-13.4187	0

    writing force and moment coefficient files.

forces forces write:
    Sum of forces
        Total    : (63.8967 597.058 8.80001e-19)
        Pressure : (47.4589 599.658 -4.07123e-19)
        Viscous  : (16.4379 -2.60049 1.28712e-18)
    Sum of moments
        Total    : (-298.529 31.9484 145.803)
        Pressure : (-299.829 23.7294 145.722)
        Viscous  : (1.30025 8.21893 0.0801873)
    writing force and moment files.

Time = 26

smoothSolver:  Solving for Ux, Initial residual = 0.00157027, Final residual = 0.000131194, No Iterations 4
smoothSolver:  Solving for Uy, Initial residual = 0.00317947, Final residual = 0.000213549, No Iterations 5
GAMG:  Solving for p, Initial residual = 0.00582351, Final residual = 5.82312e-05, No Iterations 24
GAMG:  Solving for p, Initial residual = 0.000203527, Final residual = 1.86135e-06, No Iterations 64
time step continuity errors : sum local = 8.57547e-07, global = -2.14654e-07, cumulative = 0.000144819
smoothSolver:  Solving for nuTilda, Initial residual = 0.00134397, Final residual = 0.00012949, No Iterations 8
ExecutionTime = 2.5 s  ClockTime = 3 s

forceCoeffs forceCoeffs write:
    Coefficient	Total	Pressure	Viscous	Internal
    Cd:	103.719	77.7276	25.9913	0
    Cd(f):	-441.689	-456.725	15.0367	0
    Cd(r):	545.408	534.453	10.9547	0
    Cl:	987.096	991.178	-4.08201	0
    Cl(f):	251.052	253.223	-2.17101	0
    Cl(r):	736.044	737.955	-1.911	0
    CmPitch:	-242.496	-242.366	-0.130005	0
    CmRoll:	-493.548	-495.589	2.041	0
    CmYaw:	51.8595	38.8638	12.9957	0
    Cs:	-1.44897e-18	6.52001e-19	-2.10097e-18	0
    Cs(f):	51.8595	38.8638	12.9957	0
    Cs(r):	-51.8595	-38.8638	-12.9957	0

    writing force and moment coefficient files.

forces forces write:
    Sum of forces
        Total    : (63.5278 604.596 8.87492e-19)
        Pressure : (47.6081 607.097 -3.9935e-19)
        Viscous  : (15.9197 -2.50023 1.28684e-18)
    Sum of moments
        Total    : (-302.298 31.7639 148.529)
        Pressure : (-303.548 23.8041 148.449)
        Viscous  : (1.25011 7.95985 0.0796282)
    writing force and moment files.

Time = 27

smoothSolver:  Solving for Ux, Initial residual = 0.00155033, Final residual = 0.000130636, No Iterations 4
smoothSolver:  Solving for Uy, Initial residual = 0.00320486, Final residual = 0.000319717, No Iterations 4
GAMG:  Solving for p, Initial residual = 0.00574308, Final residual = 5.70641e-05, No Iterations 28
GAMG:  Solving for p, Initial residual = 0.000222351, Final residual = 2.14768e-06, No Iterations 64
time step continuity errors : sum local = 9.79928e-07, global = -2.6149e-07, cumulative = 0.000144557
smoothSolver:  Solving for nuTilda, Initial residual = 0.00131662, Final residual = 0.000124165, No Iterations 8
ExecutionTime = 2.58 s  ClockTime = 3 s

forceCoeffs forceCoeffs write:
    Coefficient	Total	Pressure	Viscous	Internal
    Cd:	102.848	77.6477	25.2001	0
    Cd(f):	-448.436	-463.007	14.5713	0
    Cd(r):	551.283	540.655	10.6288	0
    Cl:	999.719	1003.66	-3.94253	0
    Cl(f):	252.452	254.546	-2.0937	0
    Cl(r):	747.267	749.116	-1.84883	0
    CmPitch:	-247.407	-247.285	-0.122434	0
    CmRoll:	-499.86	-501.831	1.97127	0
    CmYaw:	51.4239	38.8238	12.6	0
    Cs:	-1.46341e-18	6.36768e-19	-2.10018e-18	0
    Cs(f):	51.4239	38.8238	12.6	0
    Cs(r):	-51.4239	-38.8238	-12.6	0

    writing force and moment coefficient files.

forces forces write:
    Sum of forces
        Total    : (62.9943 612.328 8.9634e-19)
        Pressure : (47.5592 614.743 -3.90021e-19)
        Viscous  : (15.4351 -2.4148 1.28636e-18)
    Sum of moments
        Total    : (-306.164 31.4971 151.537)
        Pressure : (-307.371 23.7796 151.462)
        Viscous  : (1.2074 7.71753 0.0749911)
    writing force and moment files.

Time = 28

smoothSolver:  Solving for Ux, Initial residual = 0.00152398, Final residual = 0.000129546, No Iterations 4
smoothSolver:  Solving for Uy, Initial residual = 0.00324555, Final residual = 0.000217819, No Iterations 5
GAMG:  Solving for p, Initial residual = 0.00588019, Final residual = 5.3175e-05, No Iterations 24
GAMG:  Solving for p, Initial residual = 0.000198176, Final residual = 1.90284e-06, No Iterations 62
time step continuity errors : sum local = 8.70451e-07, global = -2.71908e-07, cumulative = 0.000144285
smoothSolver:  Solving for nuTilda, Initial residual = 0.00129421, Final residual = 0.000119428, No Iterations 8
ExecutionTime = 2.68 s  ClockTime = 3 s

forceCoeffs forceCoeffs write:
    Coefficient	Total	Pressure	Viscous	Internal
    Cd:	102.259	77.7966	24.4623	0
    Cd(f):	-454.418	-468.548	14.1297	0
    Cd(r):	556.677	546.345	10.3326	0
    Cl:	1011.1	1014.89	-3.79711	0
    Cl(f):	254.284	256.305	-2.02083	0
    Cl(r):	756.812	758.588	-1.77628	0
    CmPitch:	-251.264	-251.142	-0.122278	0
    CmRoll:	-505.548	-507.446	1.89856	0
    CmYaw:	51.1295	38.8983	12.2312	0
    Cs:	-1.47727e-18	6.20789e-19	-2.09806e-18	0
    Cs(f):	51.1295	38.8983	12.2312	0
    Cs(r):	-51.1295	-38.8983	-12.2312	0

    writing force and moment coefficient files.

forces forces write:
    Sum of forces
        Total    : (62.6336 619.296 9.0483e-19)
        Pressure : (47.6504 621.622 -3.80233e-19)
        Viscous  : (14.9832 -2.32573 1.28506e-18)
    Sum of moments
        Total    : (-309.648 31.3168 153.899)
        Pressure : (-310.811 23.8252 153.824)
        Viscous  : (1.16287 7.49158 0.0748953)
    writing force and moment files.

Time = 29

smoothSolver:  Solving for Ux, Initial residual = 0.0015058, Final residual = 0.000128927, No Iterations 4
smoothSolver:  Solving for Uy, Initial residual = 0.00326716, Final residual = 0.000326253, No Iterations 4
GAMG:  Solving for p, Initial residual = 0.00579233, Final residual = 5.74386e-05, No Iterations 26
GAMG:  Solving for p, Initial residual = 0.000220573, Final residual = 2.11504e-06, No Iterations 64
time step continuity errors : sum local = 9.60246e-07, global = -3.04368e-07, cumulative = 0.000143981
smoothSolver:  Solving for nuTilda, Initial residual = 0.00127395, Final residual = 0.000114745, No Iterations 8
ExecutionTime = 2.79 s  ClockTime = 3 s

forceCoeffs forceCoeffs write:
    Coefficient	Total	Pressure	Viscous	Internal
    Cd:	101.378	77.6082	23.7697	0
    Cd(f):	-460.654	-474.375	13.7212	0
    Cd(r):	562.032	551.983	10.0485	0
    Cl:	1022.69	1026.36	-3.67269	0
    Cl(f):	255.878	257.831	-1.95245	0
    Cl(r):	766.807	768.527	-1.72025	0
    CmPitch:	-255.465	-255.348	-0.116099	0
    CmRoll:	-511.343	-513.179	1.83635	0
    CmYaw:	50.689	38.8041	11.8849	0
    Cs:	-1.49374e-18	6.04379e-19	-2.09812e-18	0
    Cs(f):	50.689	38.8041	11.8849	0
    Cs(r):	-50.689	-38.8041	-11.8849	0

    writing force and moment coefficient files.

forces forces write:
    Sum of forces
        Total    : (62.094 626.395 9.14916e-19)
        Pressure : (47.535 628.644 -3.70182e-19)
        Viscous  : (14.5589 -2.24953 1.2851e-18)
    Sum of moments
        Total    : (-313.197 31.047 156.472)
        Pressure : (-314.322 23.7675 156.401)
        Viscous  : (1.12476 7.27947 0.0711107)
    writing force and moment files.

Time = 30

smoothSolver:  Solving for Ux, Initial residual = 0.00147972, Final residual = 0.000127889, No Iterations 4
smoothSolver:  Solving for Uy, Initial residual = 0.00330254, Final residual = 0.000221361, No Iterations 5
GAMG:  Solving for p, Initial residual = 0.00588792, Final residual = 5.24965e-05, No Iterations 21
GAMG:  Solving for p, Initial residual = 0.000195569, Final residual = 1.88978e-06, No Iterations 62
time step continuity errors : sum local = 8.60872e-07, global = -3.04633e-07, cumulative = 0.000143676
smoothSolver:  Solving for nuTilda, Initial residual = 0.00125583, Final residual = 0.000110562, No Iterations 8
ExecutionTime = 2.88 s  ClockTime = 3 s

forceCoeffs forceCoeffs write:
    Coefficient	Total	Pressure	Viscous	Internal
    Cd:	100.804	77.6831	23.1213	0
    Cd(f):	-466.268	-479.6	13.332	0
    Cd(r):	567.073	557.284	9.7893	0
    Cl:	1033.34	1036.88	-3.54274	0
    Cl(f):	257.839	259.727	-1.8879	0
    Cl(r):	775.502	777.157	-1.65484	0
    CmPitch:	-258.832	-258.715	-0.116532	0
    CmRoll:	-516.671	-518.442	1.77137	0
    CmYaw:	50.4022	38.8416	11.5607	0
    Cs:	-1.51031e-18	5.85373e-19	-2.09569e-18	0
    Cs(f):	50.4022	38.8416	11.5607	0
    Cs(r):	-50.4022	-38.8416	-11.5607	0

    writing force and moment coefficient files.

forces forces write:
    Sum of forces
        Total    : (61.7428 632.921 9.25066e-19)
        Pressure : (47.5809 635.091 -3.58541e-19)
        Viscous  : (14.1618 -2.16993 1.28361e-18)
    Sum of moments
        Total    : (-316.461 30.8714 158.534)
        Pressure : (-317.546 23.7905 158.463)
        Viscous  : (1.08496 7.08091 0.0713761)
    writing force and moment files.

Time = 31

smoothSolver:  Solving for Ux, Initial residual = 0.00146222, Final residual = 0.000127196, No Iterations 4
smoothSolver:  Solving for Uy, Initial residual = 0.00331884, Final residual = 0.00033154, No Iterations 4
GAMG:  Solving for p, Initial residual = 0.00582936, Final residual = 5.09095e-05, No Iterations 26
GAMG:  Solving for p, Initial residual = 0.000210563, Final residual = 2.06631e-06, No Iterations 62
time step continuity errors : sum local = 9.36393e-07, global = -3.34534e-07, cumulative = 0.000143342
smoothSolver:  Solving for nuTilda, Initial residual = 0.00124109, Final residual = 0.000106184, No Iterations 8
ExecutionTime = 2.99 s  ClockTime = 3 s

forceCoeffs forceCoeffs write:
    Coefficient	Total	Pressure	Viscous	Internal
    Cd:	99.9193	77.4081	22.5112	0
    Cd(f):	-472.07	-485.041	12.9711	0
    Cd(r):	571.989	562.449	9.54016	0
    Cl:	1044.06	1047.49	-3.43091	0
    Cl(f):	259.624	261.451	-1.82704	0
    Cl(r):	784.435	786.039	-1.60387	0
    CmPitch:	-262.406	-262.294	-0.111584	0
    CmRoll:	-522.03	-523.745	1.71545	0
    CmYaw:	49.9596	38.704	11.2556	0
    Cs:	-1.52976e-18	5.67745e-19	-2.0975e-18	0
    Cs(f):	49.9596	38.704	11.2556	0
    Cs(r):	-49.9596	-38.704	-11.2556	0

    writing force and moment coefficient files.

forces forces write:
    Sum of forces
        Total    : (61.2006 639.486 9.36978e-19)
        Pressure : (47.4124 641.588 -3.47744e-19)
        Viscous  : (13.7881 -2.10143 1.28472e-18)
    Sum of moments
        Total    : (-319.743 30.6003 160.724)
        Pressure : (-320.794 23.7062 160.655)
        Viscous  : (1.05071 6.89406 0.0683449)
    writing force and moment files.

Time = 32

smoothSolver:  Solving for Ux, Initial residual = 0.00143761, Final residual = 0.000126114, No Iterations 4
smoothSolver:  Solving for Uy, Initial residual = 0.00334752, Final residual = 0.000224011, No Iterations 5
GAMG:  Solving for p, Initial residual = 0.0059222, Final residual = 5.74433e-05, No Iterations 19
GAMG:  Solving for p, Initial residual = 0.000197122, Final residual = 1.79057e-06, No Iterations 64
time step continuity errors : sum local = 8.15655e-07, global = -3.12703e-07, cumulative = 0.000143029
smoothSolver:  Solving for nuTilda, Initial residual = 0.00122354, Final residual = 0.000102348, No Iterations 8
ExecutionTime = 3.08 s  ClockTime = 4 s

forceCoeffs forceCoeffs write:
    Coefficient	Total	Pressure	Viscous	Internal
    Cd:	99.3638	77.4255	21.9383	0
    Cd(f):	-477.392	-490.018	12.6262	0
    Cd(r):	576.755	567.443	9.31207	0
    Cl:	1054.15	1057.46	-3.31414	0
    Cl(f):	261.703	263.473	-1.76963	0
    Cl(r):	792.444	793.988	-1.54451	0
    CmPitch:	-265.37	-265.258	-0.112563	0
    CmRoll:	-527.074	-528.731	1.65707	0
    CmYaw:	49.6819	38.7127	10.9691	0
    Cs:	-1.54915e-18	5.46279e-19	-2.09543e-18	0
    Cs(f):	49.6819	38.7127	10.9691	0
    Cs(r):	-49.6819	-38.7127	-10.9691	0

    writing force and moment coefficient files.

forces forces write:
    Sum of forces
        Total    : (60.8603 645.665 9.48854e-19)
        Pressure : (47.4231 647.695 -3.34596e-19)
        Viscous  : (13.4372 -2.02991 1.28345e-18)
    Sum of moments
        Total    : (-322.833 30.4302 162.539)
        Pressure : (-323.848 23.7116 162.47)
        Viscous  : (1.01496 6.7186 0.0689447)
    writing force and moment files.

Time = 33

smoothSolver:  Solving for Ux, Initial residual = 0.00142044, Final residual = 0.000125255, No Iterations 4
smoothSolver:  Solving for Uy, Initial residual = 0.00335685, Final residual = 0.000335381, No Iterations 4
GAMG:  Solving for p, Initial residual = 0.00588666, Final residual = 5.35089e-05, No Iterations 24
GAMG:  Solving for p, Initial residual = 0.000208798, Final residual = 2.06296e-06, No Iterations 62
time step continuity errors : sum local = 9.37899e-07, global = -3.9324e-07, cumulative = 0.000142636
smoothSolver:  Solving for nuTilda, Initial residual = 0.0012087, Final residual = 9.80536e-05, No Iterations 8
ExecutionTime = 3.17 s  ClockTime = 4 s

forceCoeffs forceCoeffs write:
    Coefficient	Total	Pressure	Viscous	Internal
    Cd:	98.4769	77.0784	21.3985	0
    Cd(f):	-482.817	-495.123	12.3057	0
    Cd(r):	581.294	572.202	9.09272	0
    Cl:	1064.11	1067.32	-3.21303	0
    Cl(f):	263.663	265.378	-1.71524	0
    Cl(r):	800.449	801.947	-1.49778	0
    CmPitch:	-268.393	-268.284	-0.108729	0
    CmRoll:	-532.056	-533.662	1.60651	0
    CmYaw:	49.2384	38.5392	10.6992	0
    Cs:	-1.57202e-18	5.27286e-19	-2.0993e-18	0
    Cs(f):	49.2384	38.5392	10.6992	0
    Cs(r):	-49.2384	-38.5392	-10.6992	0

    writing force and moment coefficient files.

forces forces write:
    Sum of forces
        Total    : (60.3171 651.768 9.62861e-19)
        Pressure : (47.2105 653.736 -3.22962e-19)
        Viscous  : (13.1066 -1.96798 1.28582e-18)
    Sum of moments
        Total    : (-325.884 30.1585 164.391)
        Pressure : (-326.868 23.6053 164.324)
        Viscous  : (0.983989 6.55328 0.0665963)
    writing force and moment files.

Time = 34

smoothSolver:  Solving for Ux, Initial residual = 0.0013956, Final residual = 0.000124075, No Iterations 4
smoothSolver:  Solving for Uy, Initial residual = 0.00337812, Final residual = 0.000225699, No Iterations 5
GAMG:  Solving for p, Initial residual = 0.00589239, Final residual = 5.82238e-05, No Iterations 21
GAMG:  Solving for p, Initial residual = 0.000192813, Final residual = 1.903e-06, No Iterations 63
time step continuity errors : sum local = 8.70654e-07, global = -3.80164e-07, cumulative = 0.000142255
smoothSolver:  Solving for nuTilda, Initial residual = 0.00119026, Final residual = 0.000118052, No Iterations 7
ExecutionTime = 3.27 s  ClockTime = 4 s

forceCoeffs forceCoeffs write:
    Coefficient	Total	Pressure	Viscous	Internal
    Cd:	97.9511	77.0606	20.8905	0
    Cd(f):	-487.903	-499.902	11.9991	0
    Cd(r):	585.854	576.963	8.89142	0
    Cl:	1073.76	1076.87	-3.10764	0
    Cl(f):	265.846	267.51	-1.66406	0
    Cl(r):	807.911	809.355	-1.44358	0
    CmPitch:	-271.033	-270.922	-0.110242	0
    CmRoll:	-536.879	-538.433	1.55382	0
    CmYaw:	48.9756	38.5303	10.4452	0
    Cs:	-1.59407e-18	5.04028e-19	-2.0981e-18	0
    Cs(f):	48.9756	38.5303	10.4452	0
    Cs(r):	-48.9756	-38.5303	-10.4452	0

    writing force and moment coefficient files.

forces forces write:
    Sum of forces
        Total    : (59.995 657.676 9.76368e-19)
        Pressure : (47.1996 659.58 -3.08717e-19)
        Viscous  : (12.7954 -1.90343 1.28509e-18)
    Sum of moments
        Total    : (-328.838 29.9975 166.008)
        Pressure : (-329.79 23.5998 165.94)
        Viscous  : (0.951714 6.39771 0.067523)
    writing force and moment files.

Time = 35

smoothSolver:  Solving for Ux, Initial residual = 0.00137822, Final residual = 0.000123041, No Iterations 4
smoothSolver:  Solving for Uy, Initial residual = 0.0033795, Final residual = 0.000337653, No Iterations 4
GAMG:  Solving for p, Initial residual = 0.00578081, Final residual = 5.17514e-05, No Iterations 24
GAMG:  Solving for p, Initial residual = 0.000199222, Final residual = 1.85805e-06, No Iterations 64
time step continuity errors : sum local = 8.51891e-07, global = -3.90041e-07, cumulative = 0.000141865
smoothSolver:  Solving for nuTilda, Initial residual = 0.00118158, Final residual = 0.000113821, No Iterations 7
ExecutionTime = 3.34 s  ClockTime = 4 s

forceCoeffs forceCoeffs write:
    Coefficient	Total	Pressure	Viscous	Internal
    Cd:	97.0714	76.6599	20.4115	0
    Cd(f):	-492.997	-504.711	11.7138	0
    Cd(r):	590.069	581.371	8.69774	0
    Cl:	1083.07	1086.08	-3.01606	0
    Cl(f):	267.957	269.572	-1.61545	0
    Cl(r):	815.109	816.51	-1.4006	0
    CmPitch:	-273.576	-273.469	-0.107427	0
    CmRoll:	-541.533	-543.041	1.50803	0
    CmYaw:	48.5357	38.3299	10.2058	0
    Cs:	-1.62041e-18	4.83901e-19	-2.10431e-18	0
    Cs(f):	48.5357	38.3299	10.2058	0
    Cs(r):	-48.5357	-38.3299	-10.2058	0

    writing force and moment coefficient files.

forces forces write:
    Sum of forces
        Total    : (59.4562 663.378 9.92502e-19)
        Pressure : (46.9542 665.225 -2.96389e-19)
        Viscous  : (12.5021 -1.84733 1.28889e-18)
    Sum of moments
        Total    : (-331.689 29.7281 167.565)
        Pressure : (-332.613 23.4771 167.5)
        Viscous  : (0.923667 6.25103 0.0657991)
    writing force and moment files.

Time = 36

smoothSolver:  Solving for Ux, Initial residual = 0.00135445, Final residual = 0.000121751, No Iterations 4
smoothSolver:  Solving for Uy, Initial residual = 0.00339181, Final residual = 0.000226245, No Iterations 5
GAMG:  Solving for p, Initial residual = 0.00582349, Final residual = 5.69198e-05, No Iterations 22
GAMG:  Solving for p, Initial residual = 0.000186931, Final residual = 1.86204e-06, No Iterations 65
time step continuity errors : sum local = 8.61539e-07, global = 3.943e-07, cumulative = 0.00014226
smoothSolver:  Solving for nuTilda, Initial residual = 0.00116651, Final residual = 0.000109705, No Iterations 7
ExecutionTime = 3.4 s  ClockTime = 4 s

forceCoeffs forceCoeffs write:
    Coefficient	Total	Pressure	Viscous	Internal
    Cd:	96.5757	76.6153	19.9604	0
    Cd(f):	-497.884	-509.324	11.4406	0
    Cd(r):	594.459	585.94	8.51987	0
    Cl:	1092.34	1095.26	-2.92069	0
    Cl(f):	270.224	271.793	-1.56978	0
    Cl(r):	822.12	823.471	-1.3509	0
    CmPitch:	-275.948	-275.839	-0.109442	0
    CmRoll:	-546.172	-547.632	1.46034	0
    CmYaw:	48.2878	38.3076	9.98021	0
    Cs:	-1.64459e-18	4.59518e-19	-2.10411e-18	0
    Cs(f):	48.2878	38.3076	9.98021	0
    Cs(r):	-48.2878	-38.3076	-9.98021	0

    writing force and moment coefficient files.

forces forces write:
    Sum of forces
        Total    : (59.1526 669.06 1.00731e-18)
        Pressure : (46.9268 670.849 -2.81455e-19)
        Viscous  : (12.2258 -1.78892 1.28876e-18)
    Sum of moments
        Total    : (-334.53 29.5763 169.018)
        Pressure : (-335.425 23.4634 168.951)
        Viscous  : (0.89446 6.11288 0.067033)
    writing force and moment files.

Time = 37

smoothSolver:  Solving for Ux, Initial residual = 0.00133708, Final residual = 0.000120556, No Iterations 4
smoothSolver:  Solving for Uy, Initial residual = 0.00338396, Final residual = 0.000338077, No Iterations 4
GAMG:  Solving for p, Initial residual = 0.00579985, Final residual = 5.56763e-05, No Iterations 22
GAMG:  Solving for p, Initial residual = 0.000196051, Final residual = 1.84361e-06, No Iterations 66
time step continuity errors : sum local = 8.56626e-07, global = -4.11436e-07, cumulative = 0.000141848
smoothSolver:  Solving for nuTilda, Initial residual = 0.00115203, Final residual = 0.000105049, No Iterations 7
ExecutionTime = 3.47 s  ClockTime = 4 s

forceCoeffs forceCoeffs write:
    Coefficient	Total	Pressure	Viscous	Internal
    Cd:	95.7009	76.1656	19.5353	0
    Cd(f):	-502.689	-513.875	11.1864	0
    Cd(r):	598.39	590.041	8.3489	0
    Cl:	1101.08	1103.92	-2.83751	0
    Cl(f):	272.462	273.989	-1.52632	0
    Cl(r):	828.616	829.927	-1.31118	0
    CmPitch:	-278.077	-277.969	-0.107569	0
    CmRoll:	-550.539	-551.958	1.41875	0
    CmYaw:	47.8505	38.0828	9.76765	0
    Cs:	-1.67503e-18	4.39148e-19	-2.11417e-18	0
    Cs(f):	47.8505	38.0828	9.76765	0
    Cs(r):	-47.8505	-38.0828	-9.76765	0

    writing force and moment coefficient files.

forces forces write:
    Sum of forces
        Total    : (58.6168 674.411 1.02595e-18)
        Pressure : (46.6515 676.149 -2.68978e-19)
        Viscous  : (11.9654 -1.73797 1.29493e-18)
    Sum of moments
        Total    : (-337.205 29.3084 170.322)
        Pressure : (-338.074 23.3257 170.256)
        Viscous  : (0.868986 5.98269 0.065886)
    writing force and moment files.

Time = 38

smoothSolver:  Solving for Ux, Initial residual = 0.00131527, Final residual = 0.000119311, No Iterations 4
smoothSolver:  Solving for Uy, Initial residual = 0.00339929, Final residual = 0.000225654, No Iterations 5
GAMG:  Solving for p, Initial residual = 0.00583656, Final residual = 5.35901e-05, No Iterations 24
GAMG:  Solving for p, Initial residual = 0.000178291, Final residual = 1.68889e-06, No Iterations 66
time step continuity errors : sum local = 7.94597e-07, global = -3.82035e-07, cumulative = 0.000141466
smoothSolver:  Solving for nuTilda, Initial residual = 0.001134, Final residual = 0.00010062, No Iterations 7
ExecutionTime = 3.55 s  ClockTime = 4 s

forceCoeffs forceCoeffs write:
    Coefficient	Total	Pressure	Viscous	Internal
    Cd:	95.2463	76.1114	19.1349	0
    Cd(f):	-507.413	-518.356	10.943	0
    Cd(r):	602.66	594.468	8.19195	0
    Cl:	1110.07	1112.82	-2.75101	0
    Cl(f):	274.792	276.278	-1.48559	0
    Cl(r):	835.281	836.546	-1.26542	0
    CmPitch:	-280.244	-280.134	-0.110087	0
    CmRoll:	-555.036	-556.412	1.37551	0
    CmYaw:	47.6232	38.0557	9.56746	0
    Cs:	-1.69971e-18	4.13522e-19	-2.11324e-18	0
    Cs(f):	47.6232	38.0557	9.56746	0
    Cs(r):	-47.6232	-38.0557	-9.56746	0

    writing force and moment coefficient files.

forces forces write:
    Sum of forces
        Total    : (58.3384 679.92 1.04107e-18)
        Pressure : (46.6182 681.605 -2.53282e-19)
        Viscous  : (11.7201 -1.685 1.29436e-18)
    Sum of moments
        Total    : (-339.96 29.1692 171.65)
        Pressure : (-340.802 23.3091 171.582)
        Viscous  : (0.842498 5.86007 0.0674281)
    writing force and moment files.

Time = 39

smoothSolver:  Solving for Ux, Initial residual = 0.00129608, Final residual = 0.000117781, No Iterations 4
smoothSolver:  Solving for Uy, Initial residual = 0.00337852, Final residual = 0.000336504, No Iterations 4
GAMG:  Solving for p, Initial residual = 0.00576774, Final residual = 5.44873e-05, No Iterations 22
GAMG:  Solving for p, Initial residual = 0.000188927, Final residual = 1.85403e-06, No Iterations 66
time step continuity errors : sum local = 8.78712e-07, global = -4.34882e-07, cumulative = 0.000141031
smoothSolver:  Solving for nuTilda, Initial residual = 0.00111897, Final residual = 9.58111e-05, No Iterations 7
ExecutionTime = 3.61 s  ClockTime = 4 s

forceCoeffs forceCoeffs write:
    Coefficient	Total	Pressure	Viscous	Internal
    Cd:	94.3833	75.6251	18.7582	0
    Cd(f):	-511.955	-522.671	10.7167	0
    Cd(r):	606.338	598.296	8.04145	0
    Cl:	1118.29	1120.97	-2.67529	0
    Cl(f):	277.134	278.581	-1.44676	0
    Cl(r):	841.158	842.387	-1.22852	0
    CmPitch:	-282.012	-281.903	-0.10912	0
    CmRoll:	-559.146	-560.484	1.33764	0
    CmYaw:	47.1916	37.8125	9.3791	0
    Cs:	-1.73313e-18	3.92659e-19	-2.12578e-18	0
    Cs(f):	47.1916	37.8125	9.3791	0
    Cs(r):	-47.1916	-37.8125	-9.3791	0

    writing force and moment coefficient files.

forces forces write:
    Sum of forces
        Total    : (57.8098 684.954 1.06154e-18)
        Pressure : (46.3204 686.593 -2.40503e-19)
        Viscous  : (11.4894 -1.63861 1.30204e-18)
    Sum of moments
        Total    : (-342.477 28.9049 172.732)
        Pressure : (-343.296 23.1602 172.666)
        Viscous  : (0.819307 5.7447 0.0668362)
    writing force and moment files.

Time = 40

smoothSolver:  Solving for Ux, Initial residual = 0.0012744, Final residual = 0.000116391, No Iterations 4
smoothSolver:  Solving for Uy, Initial residual = 0.00337078, Final residual = 0.000223659, No Iterations 5
GAMG:  Solving for p, Initial residual = 0.00568849, Final residual = 5.4696e-05, No Iterations 24
GAMG:  Solving for p, Initial residual = 0.000173047, Final residual = 1.72755e-06, No Iterations 66
time step continuity errors : sum local = 8.30465e-07, global = -4.11378e-07, cumulative = 0.00014062
smoothSolver:  Solving for nuTilda, Initial residual = 0.0010989, Final residual = 9.1176e-05, No Iterations 7
ExecutionTime = 3.7 s  ClockTime = 4 s

forceCoeffs forceCoeffs write:
    Coefficient	Total	Pressure	Viscous	Internal
    Cd:	93.9627	75.559	18.4037	0
    Cd(f):	-516.543	-527.043	10.5002	0
    Cd(r):	610.506	602.602	7.90347	0
    Cl:	1127.05	1129.65	-2.59676	0
    Cl(f):	279.506	280.917	-1.41052	0
    Cl(r):	847.542	848.728	-1.18624	0
    CmPitch:	-284.018	-283.906	-0.112141	0
    CmRoll:	-563.524	-564.823	1.29838	0
    CmYaw:	46.9814	37.7795	9.20185	0
    Cs:	-1.7591e-18	3.66832e-19	-2.12594e-18	0
    Cs(f):	46.9814	37.7795	9.20185	0
    Cs(r):	-46.9814	-37.7795	-9.20185	0

    writing force and moment coefficient files.

forces forces write:
    Sum of forces
        Total    : (57.5522 690.317 1.07745e-18)
        Pressure : (46.2799 691.908 -2.24685e-19)
        Viscous  : (11.2723 -1.59052 1.30214e-18)
    Sum of moments
        Total    : (-345.159 28.7761 173.961)
        Pressure : (-345.954 23.14 173.892)
        Viscous  : (0.795258 5.63613 0.0686865)
    writing force and moment files.

Time = 41

smoothSolver:  Solving for Ux, Initial residual = 0.0012551, Final residual = 0.000114684, No Iterations 4
smoothSolver:  Solving for Uy, Initial residual = 0.00334191, Final residual = 0.000332788, No Iterations 4
GAMG:  Solving for p, Initial residual = 0.00559139, Final residual = 5.38167e-05, No Iterations 22
GAMG:  Solving for p, Initial residual = 0.000180769, Final residual = 1.78659e-06, No Iterations 67
time step continuity errors : sum local = 8.67512e-07, global = 4.30631e-07, cumulative = 0.000141051
smoothSolver:  Solving for nuTilda, Initial residual = 0.00108086, Final residual = 8.63193e-05, No Iterations 7
ExecutionTime = 3.77 s  ClockTime = 4 s

forceCoeffs forceCoeffs write:
    Coefficient	Total	Pressure	Viscous	Internal
    Cd:	93.1184	75.0474	18.071	0
    Cd(f):	-520.852	-531.152	10.2994	0
    Cd(r):	613.971	606.199	7.77165	0
    Cl:	1134.82	1137.35	-2.52773	0
    Cl(f):	281.925	283.301	-1.3759	0
    Cl(r):	852.898	854.05	-1.15183	0
    CmPitch:	-285.486	-285.374	-0.112036	0
    CmRoll:	-567.412	-568.675	1.26386	0
    CmYaw:	46.5592	37.5237	9.03551	0
    Cs:	-1.79471e-18	3.46229e-19	-2.14093e-18	0
    Cs(f):	46.5592	37.5237	9.03551	0
    Cs(r):	-46.5592	-37.5237	-9.03551	0

    writing force and moment coefficient files.

forces forces write:
    Sum of forces
        Total    : (57.035 695.079 1.09926e-18)
        Pressure : (45.9665 696.627 -2.12065e-19)
        Viscous  : (11.0685 -1.54823 1.31132e-18)
    Sum of moments
        Total    : (-347.54 28.5175 174.86)
        Pressure : (-348.314 22.9833 174.792)
        Viscous  : (0.774117 5.53425 0.0686221)
    writing force and moment files.

Time = 42

smoothSolver:  Solving for Ux, Initial residual = 0.00123458, Final residual = 0.000113181, No Iterations 4
smoothSolver:  Solving for Uy, Initial residual = 0.00332186, Final residual = 0.000220228, No Iterations 5
GAMG:  Solving for p, Initial residual = 0.00546753, Final residual = 4.99741e-05, No Iterations 25
GAMG:  Solving for p, Initial residual = 0.000167333, Final residual = 1.57367e-06, No Iterations 67
time step continuity errors : sum local = 7.76488e-07, global = -3.86579e-07, cumulative = 0.000140664
smoothSolver:  Solving for nuTilda, Initial residual = 0.00105844, Final residual = 0.00010517, No Iterations 6
ExecutionTime = 3.85 s  ClockTime = 4 s

forceCoeffs forceCoeffs write:
    Coefficient	Total	Pressure	Viscous	Internal
    Cd:	92.7268	74.9684	17.7585	0
    Cd(f):	-525.324	-535.431	10.1074	0
    Cd(r):	618.051	610.4	7.65103	0
    Cl:	1143.37	1145.83	-2.4564	0
    Cl(f):	284.32	285.663	-1.34376	0
    Cl(r):	859.055	860.167	-1.11265	0
    CmPitch:	-287.367	-287.252	-0.115555	0
    CmRoll:	-571.687	-572.915	1.2282	0
    CmYaw:	46.3634	37.4842	8.87923	0
    Cs:	-1.82111e-18	3.20671e-19	-2.14178e-18	0
    Cs(f):	46.3634	37.4842	8.87923	0
    Cs(r):	-46.3634	-37.4842	-8.87923	0

    writing force and moment coefficient files.

forces forces write:
    Sum of forces
        Total    : (56.7952 700.317 1.11543e-18)
        Pressure : (45.9181 701.821 -1.96411e-19)
        Viscous  : (10.8771 -1.50455 1.31184e-18)
    Sum of moments
        Total    : (-350.158 28.3976 176.013)
        Pressure : (-350.911 22.9591 175.942)
        Viscous  : (0.752273 5.43853 0.0707772)
    writing force and moment files.

Time = 43

smoothSolver:  Solving for Ux, Initial residual = 0.00121564, Final residual = 0.000111318, No Iterations 4
smoothSolver:  Solving for Uy, Initial residual = 0.00328059, Final residual = 0.000326829, No Iterations 4
GAMG:  Solving for p, Initial residual = 0.00532119, Final residual = 4.95086e-05, No Iterations 21
GAMG:  Solving for p, Initial residual = 0.000170603, Final residual = 1.65656e-06, No Iterations 67
time step continuity errors : sum local = 8.2779e-07, global = -4.20569e-07, cumulative = 0.000140243
smoothSolver:  Solving for nuTilda, Initial residual = 0.00104163, Final residual = 0.000100316, No Iterations 6
ExecutionTime = 3.91 s  ClockTime = 4 s

forceCoeffs forceCoeffs write:
    Coefficient	Total	Pressure	Viscous	Internal
    Cd:	91.8986	74.4326	17.466	0
    Cd(f):	-529.425	-539.355	9.92977	0
    Cd(r):	621.324	613.787	7.53626	0
    Cl:	1150.75	1153.14	-2.39351	0
    Cl(f):	286.791	288.104	-1.31302	0
    Cl(r):	863.958	865.038	-1.08048	0
    CmPitch:	-288.584	-288.467	-0.11627	0
    CmRoll:	-575.374	-576.571	1.19675	0
    CmYaw:	45.9493	37.2163	8.73301	0
    Cs:	-1.85816e-18	3.00833e-19	-2.159e-18	0
    Cs(f):	45.9493	37.2163	8.73301	0
    Cs(r):	-45.9493	-37.2163	-8.73301	0

    writing force and moment coefficient files.

forces forces write:
    Sum of forces
        Total    : (56.2879 704.833 1.13812e-18)
        Pressure : (45.5899 706.3 -1.8426e-19)
        Viscous  : (10.6979 -1.46602 1.32238e-18)
    Sum of moments
        Total    : (-352.417 28.1439 176.758)
        Pressure : (-353.15 22.795 176.686)
        Viscous  : (0.733011 5.34897 0.0712154)
    writing force and moment files.

Time = 44

smoothSolver:  Solving for Ux, Initial residual = 0.00119614, Final residual = 0.000109728, No Iterations 4
smoothSolver:  Solving for Uy, Initial residual = 0.00325088, Final residual = 0.000215508, No Iterations 5
GAMG:  Solving for p, Initial residual = 0.00517139, Final residual = 4.70004e-05, No Iterations 25
GAMG:  Solving for p, Initial residual = 0.000159368, Final residual = 1.50568e-06, No Iterations 67
time step continuity errors : sum local = 7.65559e-07, global = -3.79657e-07, cumulative = 0.000139864
smoothSolver:  Solving for nuTilda, Initial residual = 0.00102233, Final residual = 9.54901e-05, No Iterations 6
ExecutionTime = 3.98 s  ClockTime = 4 s

forceCoeffs forceCoeffs write:
    Coefficient	Total	Pressure	Viscous	Internal
    Cd:	91.5321	74.3403	17.1918	0
    Cd(f):	-533.793	-543.554	9.76024	0
    Cd(r):	625.326	617.894	7.43155	0
    Cl:	1159.12	1161.45	-2.32869	0
    Cl(f):	289.186	290.471	-1.28461	0
    Cl(r):	869.933	870.977	-1.04409	0
    CmPitch:	-290.373	-290.253	-0.120258	0
    CmRoll:	-579.56	-580.724	1.16435	0
    CmYaw:	45.766	37.1701	8.5959	0
    Cs:	-1.88456e-18	2.75986e-19	-2.16054e-18	0
    Cs(f):	45.766	37.1701	8.5959	0
    Cs(r):	-45.766	-37.1701	-8.5959	0

    writing force and moment coefficient files.

forces forces write:
    Sum of forces
        Total    : (56.0634 709.96 1.15429e-18)
        Pressure : (45.5334 711.387 -1.69041e-19)
        Viscous  : (10.53 -1.42633 1.32333e-18)
    Sum of moments
        Total    : (-354.98 28.0317 177.854)
        Pressure : (-355.693 22.7667 177.78)
        Viscous  : (0.713163 5.26499 0.0736581)
    writing force and moment files.

Time = 45

smoothSolver:  Solving for Ux, Initial residual = 0.00117634, Final residual = 0.000107723, No Iterations 4
smoothSolver:  Solving for Uy, Initial residual = 0.00319739, Final residual = 0.000318794, No Iterations 4
GAMG:  Solving for p, Initial residual = 0.00496831, Final residual = 4.48527e-05, No Iterations 24
GAMG:  Solving for p, Initial residual = 0.00016064, Final residual = 1.57883e-06, No Iterations 66
time step continuity errors : sum local = 8.14664e-07, global = 4.08724e-07, cumulative = 0.000140273
smoothSolver:  Solving for nuTilda, Initial residual = 0.00100207, Final residual = 9.04927e-05, No Iterations 6
ExecutionTime = 4.05 s  ClockTime = 5 s

forceCoeffs forceCoeffs write:
    Coefficient	Total	Pressure	Viscous	Internal
    Cd:	90.7199	73.7838	16.9361	0
    Cd(f):	-537.71	-547.314	9.60365	0
    Cd(r):	628.43	621.098	7.33245	0
    Cl:	1166.14	1168.41	-2.2712	0
    Cl(f):	291.685	292.942	-1.25731	0
    Cl(r):	874.455	875.469	-1.01388	0
    CmPitch:	-291.385	-291.263	-0.121715	0
    CmRoll:	-583.07	-584.206	1.1356	0
    CmYaw:	45.3599	36.8919	8.46805	0
    Cs:	-1.92242e-18	2.57521e-19	-2.17995e-18	0
    Cs(f):	45.3599	36.8919	8.46805	0
    Cs(r):	-45.3599	-36.8919	-8.46805	0

    writing force and moment coefficient files.

forces forces write:
    Sum of forces
        Total    : (55.5659 714.261 1.17749e-18)
        Pressure : (45.1926 715.652 -1.57731e-19)
        Viscous  : (10.3734 -1.39111 1.33522e-18)
    Sum of moments
        Total    : (-357.13 27.783 178.473)
        Pressure : (-357.826 22.5963 178.399)
        Viscous  : (0.695554 5.18668 0.0745502)
    writing force and moment files.

Time = 46

smoothSolver:  Solving for Ux, Initial residual = 0.00115712, Final residual = 0.000106009, No Iterations 4
smoothSolver:  Solving for Uy, Initial residual = 0.00315579, Final residual = 0.000209419, No Iterations 5
GAMG:  Solving for p, Initial residual = 0.00469066, Final residual = 4.38317e-05, No Iterations 25
GAMG:  Solving for p, Initial residual = 0.000153049, Final residual = 1.52938e-06, No Iterations 66
time step continuity errors : sum local = 8.03549e-07, global = 3.89812e-07, cumulative = 0.000140662
smoothSolver:  Solving for nuTilda, Initial residual = 0.000978557, Final residual = 8.56259e-05, No Iterations 6
ExecutionTime = 4.12 s  ClockTime = 5 s

forceCoeffs forceCoeffs write:
    Coefficient	Total	Pressure	Viscous	Internal
    Cd:	90.3716	73.675	16.6965	0
    Cd(f):	-541.984	-551.439	9.45441	0
    Cd(r):	632.356	625.114	7.24214	0
    Cl:	1174.34	1176.55	-2.21227	0
    Cl(f):	294.062	295.294	-1.23225	0
    Cl(r):	880.279	881.259	-0.980019	0
    CmPitch:	-293.108	-292.982	-0.126116	0
    CmRoll:	-587.17	-588.276	1.10614	0
    CmYaw:	45.1858	36.8375	8.34827	0
    Cs:	-1.94833e-18	2.33893e-19	-2.18223e-18	0
    Cs(f):	45.1858	36.8375	8.34827	0
    Cs(r):	-45.1858	-36.8375	-8.34827	0

    writing force and moment coefficient files.

forces forces write:
    Sum of forces
        Total    : (55.3526 719.284 1.19335e-18)
        Pressure : (45.126 720.639 -1.4326e-19)
        Viscous  : (10.2266 -1.35502 1.33661e-18)
    Sum of moments
        Total    : (-359.642 27.6763 179.529)
        Pressure : (-360.319 22.563 179.452)
        Viscous  : (0.677508 5.11332 0.0772461)
    writing force and moment files.

Time = 47

smoothSolver:  Solving for Ux, Initial residual = 0.00113797, Final residual = 0.000103856, No Iterations 4
smoothSolver:  Solving for Uy, Initial residual = 0.00309046, Final residual = 0.000308601, No Iterations 4
GAMG:  Solving for p, Initial residual = 0.00446696, Final residual = 4.03207e-05, No Iterations 26
GAMG:  Solving for p, Initial residual = 0.000150246, Final residual = 1.46204e-06, No Iterations 65
time step continuity errors : sum local = 7.80774e-07, global = -3.9488e-07, cumulative = 0.000140267
smoothSolver:  Solving for nuTilda, Initial residual = 0.000956981, Final residual = 8.08369e-05, No Iterations 6
ExecutionTime = 4.19 s  ClockTime = 5 s

forceCoeffs forceCoeffs write:
    Coefficient	Total	Pressure	Viscous	Internal
    Cd:	89.5752	73.1013	16.4739	0
    Cd(f):	-545.735	-555.052	9.31678	0
    Cd(r):	635.31	628.153	7.15717	0
[...]
smoothSolver:  Solving for Uy, Initial residual = 1.0992e-05, Final residual = 8.06411e-07, No Iterations 4
GAMG:  Solving for p, Initial residual = 1.0582e-05, Final residual = 1.05351e-07, No Iterations 18
GAMG:  Solving for p, Initial residual = 3.57204e-07, Final residual = 9.59843e-09, No Iterations 48
time step continuity errors : sum local = 8.27445e-09, global = -3.74553e-09, cumulative = 0.00013137
smoothSolver:  Solving for nuTilda, Initial residual = 2.28051e-05, Final residual = 2.20471e-06, No Iterations 6
ExecutionTime = 34.57 s  ClockTime = 36 s

forceCoeffs forceCoeffs write:
    Coefficient	Total	Pressure	Viscous	Internal
    Cd:	38.1785	27.7344	10.4441	0
    Cd(f):	-771.837	-776.965	5.1283	0
    Cd(r):	810.015	804.699	5.31576	0
    Cl:	1581.85	1581.66	0.187456	0
    Cl(f):	414.798	414.831	-0.0333429	0
    Cl(r):	1167.05	1166.83	0.220799	0
    CmPitch:	-376.128	-376.001	-0.127071	0
    CmRoll:	-790.926	-790.832	-0.0937282	0
    CmYaw:	19.0892	13.8672	5.22203	0
    Cs:	-3.70766e-18	-9.85974e-19	-2.72169e-18	0
    Cs(f):	19.0892	13.8672	5.22203	0
    Cs(r):	-19.0892	-13.8672	-5.22203	0

    writing force and moment coefficient files.

forces forces write:
    Sum of forces
        Total    : (23.3843 968.884 2.27094e-18)
        Pressure : (16.9873 968.769 6.03909e-19)
        Viscous  : (6.39699 0.114817 1.66704e-18)
    Sum of moments
        Total    : (-484.442 11.6922 230.378)
        Pressure : (-484.385 8.49367 230.301)
        Viscous  : (-0.0574085 3.1985 0.0778311)
    writing force and moment files.

Time = 490

smoothSolver:  Solving for Ux, Initial residual = 3.52613e-06, Final residual = 2.46549e-07, No Iterations 4
smoothSolver:  Solving for Uy, Initial residual = 1.09301e-05, Final residual = 8.07031e-07, No Iterations 4
GAMG:  Solving for p, Initial residual = 1.06873e-05, Final residual = 9.39155e-08, No Iterations 18
GAMG:  Solving for p, Initial residual = 3.41054e-07, Final residual = 9.55556e-09, No Iterations 52
time step continuity errors : sum local = 8.23756e-09, global = -5.11408e-09, cumulative = 0.000131365
smoothSolver:  Solving for nuTilda, Initial residual = 2.28156e-05, Final residual = 2.15168e-06, No Iterations 6
ExecutionTime = 34.63 s  ClockTime = 36 s

forceCoeffs forceCoeffs write:
    Coefficient	Total	Pressure	Viscous	Internal
    Cd:	38.1705	27.7307	10.4398	0
    Cd(f):	-771.85	-776.98	5.12948	0
    Cd(r):	810.021	804.71	5.31033	0
    Cl:	1581.87	1581.69	0.180849	0
    Cl(f):	414.802	414.838	-0.0364443	0
    Cl(r):	1167.07	1166.85	0.217293	0
    CmPitch:	-376.133	-376.006	-0.126869	0
    CmRoll:	-790.935	-790.845	-0.0904244	0
    CmYaw:	19.0852	13.8653	5.2199	0
    Cs:	-3.71172e-18	-9.86135e-19	-2.72558e-18	0
    Cs(f):	19.0852	13.8653	5.2199	0
    Cs(r):	-19.0852	-13.8653	-5.2199	0

    writing force and moment coefficient files.

forces forces write:
    Sum of forces
        Total    : (23.3794 968.896 2.27343e-18)
        Pressure : (16.985 968.785 6.04008e-19)
        Viscous  : (6.39438 0.11077 1.66942e-18)
    Sum of moments
        Total    : (-484.448 11.6897 230.382)
        Pressure : (-484.392 8.49252 230.304)
        Viscous  : (-0.0553849 3.19719 0.0777071)
    writing force and moment files.

Time = 491

smoothSolver:  Solving for Ux, Initial residual = 3.54928e-06, Final residual = 2.49375e-07, No Iterations 4
smoothSolver:  Solving for Uy, Initial residual = 1.10842e-05, Final residual = 8.1407e-07, No Iterations 4
GAMG:  Solving for p, Initial residual = 1.05802e-05, Final residual = 1.03444e-07, No Iterations 19
GAMG:  Solving for p, Initial residual = 3.57549e-07, Final residual = 9.74253e-09, No Iterations 47
time step continuity errors : sum local = 8.39882e-09, global = -3.80492e-09, cumulative = 0.000131361
smoothSolver:  Solving for nuTilda, Initial residual = 2.27606e-05, Final residual = 2.19359e-06, No Iterations 6
ExecutionTime = 34.68 s  ClockTime = 36 s

forceCoeffs forceCoeffs write:
    Coefficient	Total	Pressure	Viscous	Internal
    Cd:	38.172	27.7259	10.4461	0
    Cd(f):	-771.866	-776.996	5.12941	0
    Cd(r):	810.038	804.722	5.31668	0
    Cl:	1581.9	1581.72	0.187263	0
    Cl(f):	414.813	414.846	-0.033008	0
    Cl(r):	1167.09	1166.87	0.220271	0
    CmPitch:	-376.139	-376.013	-0.12664	0
    CmRoll:	-790.952	-790.859	-0.0936315	0
    CmYaw:	19.086	13.8629	5.22305	0
    Cs:	-3.7078e-18	-9.86131e-19	-2.72167e-18	0
    Cs(f):	19.086	13.8629	5.22305	0
    Cs(r):	-19.086	-13.8629	-5.22305	0

    writing force and moment coefficient files.

forces forces write:
    Sum of forces
        Total    : (23.3803 968.917 2.27103e-18)
        Pressure : (16.9821 968.802 6.04006e-19)
        Viscous  : (6.39823 0.114699 1.66703e-18)
    Sum of moments
        Total    : (-484.458 11.6902 230.385)
        Pressure : (-484.401 8.49105 230.308)
        Viscous  : (-0.0573493 3.19912 0.0775667)
    writing force and moment files.

Time = 492

smoothSolver:  Solving for Ux, Initial residual = 3.52154e-06, Final residual = 2.47171e-07, No Iterations 4
smoothSolver:  Solving for Uy, Initial residual = 1.10226e-05, Final residual = 8.14701e-07, No Iterations 4
GAMG:  Solving for p, Initial residual = 1.06948e-05, Final residual = 9.52271e-08, No Iterations 18
GAMG:  Solving for p, Initial residual = 3.43469e-07, Final residual = 9.58345e-09, No Iterations 52
time step continuity errors : sum local = 8.26174e-09, global = -5.13626e-09, cumulative = 0.000131356
smoothSolver:  Solving for nuTilda, Initial residual = 2.27723e-05, Final residual = 2.14092e-06, No Iterations 6
ExecutionTime = 34.74 s  ClockTime = 36 s

forceCoeffs forceCoeffs write:
    Coefficient	Total	Pressure	Viscous	Internal
    Cd:	38.164	27.7222	10.4418	0
    Cd(f):	-771.88	-777.011	5.13059	0
    Cd(r):	810.044	804.733	5.31124	0
    Cl:	1581.92	1581.74	0.18065	0
    Cl(f):	414.817	414.853	-0.0361133	0
    Cl(r):	1167.11	1166.89	0.216763	0
    CmPitch:	-376.145	-376.018	-0.126438	0
    CmRoll:	-790.962	-790.872	-0.0903248	0
    CmYaw:	19.082	13.8611	5.22092	0
    Cs:	-3.71186e-18	-9.86293e-19	-2.72557e-18	0
    Cs(f):	19.082	13.8611	5.22092	0
    Cs(r):	-19.082	-13.8611	-5.22092	0

    writing force and moment coefficient files.

forces forces write:
    Sum of forces
        Total    : (23.3755 968.928 2.27351e-18)
        Pressure : (16.9798 968.818 6.04104e-19)
        Viscous  : (6.39563 0.110648 1.66941e-18)
    Sum of moments
        Total    : (-484.464 11.6877 230.389)
        Pressure : (-484.409 8.48992 230.311)
        Viscous  : (-0.055324 3.19781 0.0774433)
    writing force and moment files.

Time = 493

smoothSolver:  Solving for Ux, Initial residual = 3.54441e-06, Final residual = 2.50006e-07, No Iterations 4
smoothSolver:  Solving for Uy, Initial residual = 1.11766e-05, Final residual = 8.21721e-07, No Iterations 4
GAMG:  Solving for p, Initial residual = 1.05962e-05, Final residual = 1.04497e-07, No Iterations 19
GAMG:  Solving for p, Initial residual = 3.59484e-07, Final residual = 9.78771e-09, No Iterations 47
time step continuity errors : sum local = 8.43791e-09, global = -3.81661e-09, cumulative = 0.000131352
smoothSolver:  Solving for nuTilda, Initial residual = 2.27167e-05, Final residual = 2.18269e-06, No Iterations 6
ExecutionTime = 34.79 s  ClockTime = 36 s

forceCoeffs forceCoeffs write:
    Coefficient	Total	Pressure	Viscous	Internal
    Cd:	38.1655	27.7174	10.4481	0
    Cd(f):	-771.897	-777.027	5.13053	0
    Cd(r):	810.062	804.744	5.31759	0
    Cl:	1581.96	1581.77	0.18706	0
    Cl(f):	414.828	414.861	-0.0326802	0
    Cl(r):	1167.13	1166.91	0.21974	0
    CmPitch:	-376.151	-376.025	-0.12621	0
    CmRoll:	-790.979	-790.886	-0.0935301	0
    CmYaw:	19.0828	13.8587	5.22406	0
    Cs:	-3.70795e-18	-9.86288e-19	-2.72166e-18	0
    Cs(f):	19.0828	13.8587	5.22406	0
    Cs(r):	-19.0828	-13.8587	-5.22406	0

    writing force and moment coefficient files.

forces forces write:
    Sum of forces
        Total    : (23.3764 968.95 2.27112e-18)
        Pressure : (16.9769 968.835 6.04102e-19)
        Viscous  : (6.39948 0.114574 1.66702e-18)
    Sum of moments
        Total    : (-484.475 11.6882 230.392)
        Pressure : (-484.418 8.48846 230.315)
        Viscous  : (-0.0572872 3.19974 0.0773038)
    writing force and moment files.

Time = 494

smoothSolver:  Solving for Ux, Initial residual = 3.51697e-06, Final residual = 2.47807e-07, No Iterations 4
smoothSolver:  Solving for Uy, Initial residual = 1.11147e-05, Final residual = 8.22339e-07, No Iterations 4
GAMG:  Solving for p, Initial residual = 1.07121e-05, Final residual = 9.60236e-08, No Iterations 18
GAMG:  Solving for p, Initial residual = 3.44982e-07, Final residual = 9.59891e-09, No Iterations 52
time step continuity errors : sum local = 8.27522e-09, global = -5.15164e-09, cumulative = 0.000131347
smoothSolver:  Solving for nuTilda, Initial residual = 2.27301e-05, Final residual = 2.13043e-06, No Iterations 6
ExecutionTime = 34.84 s  ClockTime = 36 s

forceCoeffs forceCoeffs write:
    Coefficient	Total	Pressure	Viscous	Internal
    Cd:	38.1577	27.7138	10.4439	0
    Cd(f):	-771.91	-777.042	5.13172	0
    Cd(r):	810.068	804.756	5.31216	0
    Cl:	1581.98	1581.8	0.180442	0
    Cl(f):	414.832	414.868	-0.0357892	0
    Cl(r):	1167.15	1166.93	0.216231	0
    CmPitch:	-376.157	-376.031	-0.12601	0
    CmRoll:	-790.989	-790.899	-0.0902208	0
    CmYaw:	19.0788	13.8569	5.22194	0
    Cs:	-3.712e-18	-9.86448e-19	-2.72555e-18	0
    Cs(f):	19.0788	13.8569	5.22194	0
    Cs(r):	-19.0788	-13.8569	-5.22194	0

    writing force and moment coefficient files.

forces forces write:
    Sum of forces
        Total    : (23.3716 968.962 2.2736e-18)
        Pressure : (16.9747 968.851 6.042e-19)
        Viscous  : (6.39687 0.11052 1.6694e-18)
    Sum of moments
        Total    : (-484.481 11.6858 230.396)
        Pressure : (-484.426 8.48735 230.319)
        Viscous  : (-0.0552602 3.19844 0.0771811)
    writing force and moment files.

Time = 495

smoothSolver:  Solving for Ux, Initial residual = 3.53981e-06, Final residual = 2.50653e-07, No Iterations 4
smoothSolver:  Solving for Uy, Initial residual = 1.12683e-05, Final residual = 8.29346e-07, No Iterations 4
GAMG:  Solving for p, Initial residual = 1.06103e-05, Final residual = 1.05171e-07, No Iterations 19
GAMG:  Solving for p, Initial residual = 3.61012e-07, Final residual = 9.81793e-09, No Iterations 47
time step continuity errors : sum local = 8.4641e-09, global = -3.82103e-09, cumulative = 0.000131343
smoothSolver:  Solving for nuTilda, Initial residual = 2.26725e-05, Final residual = 2.17197e-06, No Iterations 6
ExecutionTime = 34.89 s  ClockTime = 36 s

forceCoeffs forceCoeffs write:
    Coefficient	Total	Pressure	Viscous	Internal
    Cd:	38.1592	27.7091	10.4502	0
    Cd(f):	-771.927	-777.059	5.13166	0
    Cd(r):	810.086	804.768	5.31851	0
    Cl:	1582.01	1581.83	0.186849	0
    Cl(f):	414.844	414.876	-0.0323591	0
    Cl(r):	1167.17	1166.95	0.219208	0
    CmPitch:	-376.163	-376.037	-0.125783	0
    CmRoll:	-791.007	-790.913	-0.0934243	0
    CmYaw:	19.0796	13.8545	5.22508	0
    Cs:	-3.70809e-18	-9.86443e-19	-2.72165e-18	0
    Cs(f):	19.0796	13.8545	5.22508	0
    Cs(r):	-19.0796	-13.8545	-5.22508	0

    writing force and moment coefficient files.

forces forces write:
    Sum of forces
        Total    : (23.3725 968.983 2.27121e-18)
        Pressure : (16.9718 968.869 6.04196e-19)
        Viscous  : (6.40073 0.114445 1.66701e-18)
    Sum of moments
        Total    : (-484.492 11.6863 230.4)
        Pressure : (-484.434 8.4859 230.323)
        Viscous  : (-0.0572224 3.20036 0.0770423)
    writing force and moment files.

Time = 496

smoothSolver:  Solving for Ux, Initial residual = 3.51262e-06, Final residual = 2.48455e-07, No Iterations 4
smoothSolver:  Solving for Uy, Initial residual = 1.12056e-05, Final residual = 8.29937e-07, No Iterations 4
GAMG:  Solving for p, Initial residual = 1.0724e-05, Final residual = 9.63952e-08, No Iterations 18
GAMG:  Solving for p, Initial residual = 3.46144e-07, Final residual = 9.60904e-09, No Iterations 52
time step continuity errors : sum local = 8.28408e-09, global = -5.1626e-09, cumulative = 0.000131338
smoothSolver:  Solving for nuTilda, Initial residual = 2.26883e-05, Final residual = 2.12003e-06, No Iterations 6
ExecutionTime = 34.95 s  ClockTime = 36 s

forceCoeffs forceCoeffs write:
    Coefficient	Total	Pressure	Viscous	Internal
    Cd:	38.1514	27.7055	10.4459	0
    Cd(f):	-771.941	-777.074	5.13285	0
    Cd(r):	810.092	804.779	5.31307	0
    Cl:	1582.03	1581.85	0.180225	0
    Cl(f):	414.848	414.883	-0.0354715	0
    Cl(r):	1167.19	1166.97	0.215697	0
    CmPitch:	-376.169	-376.044	-0.125584	0
    CmRoll:	-791.017	-790.927	-0.0901127	0
    CmYaw:	19.0757	13.8527	5.22296	0
    Cs:	-3.71215e-18	-9.86601e-19	-2.72555e-18	0
    Cs(f):	19.0757	13.8527	5.22296	0
    Cs(r):	-19.0757	-13.8527	-5.22296	0

    writing force and moment coefficient files.

forces forces write:
    Sum of forces
        Total    : (23.3677 968.996 2.27369e-18)
        Pressure : (16.9696 968.885 6.04293e-19)
        Viscous  : (6.39813 0.110388 1.6694e-18)
    Sum of moments
        Total    : (-484.498 11.6839 230.404)
        Pressure : (-484.443 8.4848 230.327)
        Viscous  : (-0.055194 3.19906 0.0769203)
    writing force and moment files.

Time = 497

smoothSolver:  Solving for Ux, Initial residual = 3.53541e-06, Final residual = 2.51312e-07, No Iterations 4
smoothSolver:  Solving for Uy, Initial residual = 1.13588e-05, Final residual = 8.36935e-07, No Iterations 4
GAMG:  Solving for p, Initial residual = 1.06243e-05, Final residual = 1.05712e-07, No Iterations 19
GAMG:  Solving for p, Initial residual = 3.61883e-07, Final residual = 9.85949e-09, No Iterations 47
time step continuity errors : sum local = 8.50007e-09, global = -3.82411e-09, cumulative = 0.000131334
smoothSolver:  Solving for nuTilda, Initial residual = 2.2627e-05, Final residual = 2.16132e-06, No Iterations 6
ExecutionTime = 35 s  ClockTime = 36 s

forceCoeffs forceCoeffs write:
    Coefficient	Total	Pressure	Viscous	Internal
    Cd:	38.153	27.7008	10.4522	0
    Cd(f):	-771.958	-777.091	5.13279	0
    Cd(r):	810.111	804.792	5.31942	0
    Cl:	1582.07	1581.88	0.186629	0
    Cl(f):	414.859	414.891	-0.0320442	0
    Cl(r):	1167.21	1166.99	0.218674	0
    CmPitch:	-376.176	-376.05	-0.125359	0
    CmRoll:	-791.034	-790.941	-0.0933147	0
    CmYaw:	19.0765	13.8504	5.22611	0
    Cs:	-3.70824e-18	-9.86595e-19	-2.72164e-18	0
    Cs(f):	19.0765	13.8504	5.22611	0
    Cs(r):	-19.0765	-13.8504	-5.22611	0

    writing force and moment coefficient files.

forces forces write:
    Sum of forces
        Total    : (23.3687 969.017 2.2713e-18)
        Pressure : (16.9667 968.903 6.04289e-19)
        Viscous  : (6.40198 0.114311 1.66701e-18)
    Sum of moments
        Total    : (-484.509 11.6844 230.408)
        Pressure : (-484.451 8.48337 230.331)
        Viscous  : (-0.0571553 3.20099 0.0767824)
    writing force and moment files.

Time = 498

smoothSolver:  Solving for Ux, Initial residual = 3.50851e-06, Final residual = 2.49114e-07, No Iterations 4
smoothSolver:  Solving for Uy, Initial residual = 1.1296e-05, Final residual = 8.37492e-07, No Iterations 4
GAMG:  Solving for p, Initial residual = 1.07395e-05, Final residual = 9.65486e-08, No Iterations 18
GAMG:  Solving for p, Initial residual = 3.46356e-07, Final residual = 9.63858e-09, No Iterations 52
time step continuity errors : sum local = 8.30969e-09, global = -5.17043e-09, cumulative = 0.000131329
smoothSolver:  Solving for nuTilda, Initial residual = 2.26451e-05, Final residual = 2.10967e-06, No Iterations 6
ExecutionTime = 35.05 s  ClockTime = 36 s

forceCoeffs forceCoeffs write:
    Coefficient	Total	Pressure	Viscous	Internal
    Cd:	38.1452	27.6972	10.448	0
    Cd(f):	-771.972	-777.106	5.13399	0
    Cd(r):	810.117	804.803	5.31399	0
    Cl:	1582.09	1581.91	0.180002	0
    Cl(f):	414.863	414.898	-0.0351599	0
    Cl(r):	1167.23	1167.01	0.215162	0
    CmPitch:	-376.182	-376.057	-0.125161	0
    CmRoll:	-791.045	-790.955	-0.0900009	0
    CmYaw:	19.0726	13.8486	5.22399	0
    Cs:	-3.7123e-18	-9.86754e-19	-2.72554e-18	0
    Cs(f):	19.0726	13.8486	5.22399	0
    Cs(r):	-19.0726	-13.8486	-5.22399	0

    writing force and moment coefficient files.

forces forces write:
    Sum of forces
        Total    : (23.3639 969.03 2.27378e-18)
        Pressure : (16.9646 968.92 6.04387e-19)
        Viscous  : (6.39938 0.110251 1.66939e-18)
    Sum of moments
        Total    : (-484.515 11.682 230.411)
        Pressure : (-484.46 8.48228 230.335)
        Viscous  : (-0.0551256 3.19969 0.076661)
    writing force and moment files.

Time = 499

smoothSolver:  Solving for Ux, Initial residual = 3.53134e-06, Final residual = 2.51981e-07, No Iterations 4
smoothSolver:  Solving for Uy, Initial residual = 1.14491e-05, Final residual = 8.44479e-07, No Iterations 4
GAMG:  Solving for p, Initial residual = 1.06477e-05, Final residual = 1.06312e-07, No Iterations 19
GAMG:  Solving for p, Initial residual = 3.62546e-07, Final residual = 9.91402e-09, No Iterations 47
time step continuity errors : sum local = 8.54722e-09, global = -3.83001e-09, cumulative = 0.000131325
smoothSolver:  Solving for nuTilda, Initial residual = 2.25848e-05, Final residual = 2.15071e-06, No Iterations 6
ExecutionTime = 35.1 s  ClockTime = 36 s

forceCoeffs forceCoeffs write:
    Coefficient	Total	Pressure	Viscous	Internal
    Cd:	38.1469	27.6926	10.4543	0
    Cd(f):	-771.989	-777.123	5.13393	0
    Cd(r):	810.136	804.816	5.32033	0
    Cl:	1582.13	1581.94	0.186403	0
    Cl(f):	414.874	414.906	-0.0317353	0
    Cl(r):	1167.25	1167.03	0.218139	0
    CmPitch:	-376.189	-376.064	-0.124937	0
    CmRoll:	-791.063	-790.97	-0.0932016	0
    CmYaw:	19.0734	13.8463	5.22713	0
    Cs:	-3.70839e-18	-9.86749e-19	-2.72164e-18	0
    Cs(f):	19.0734	13.8463	5.22713	0
    Cs(r):	-19.0734	-13.8463	-5.22713	0

    writing force and moment coefficient files.

forces forces write:
    Sum of forces
        Total    : (23.365 969.052 2.27139e-18)
        Pressure : (16.9617 968.938 6.04384e-19)
        Viscous  : (6.40324 0.114172 1.66701e-18)
    Sum of moments
        Total    : (-484.526 11.6825 230.416)
        Pressure : (-484.469 8.48086 230.339)
        Viscous  : (-0.057086 3.20162 0.0765238)
    writing force and moment files.

Time = 500

smoothSolver:  Solving for Ux, Initial residual = 3.50478e-06, Final residual = 2.49784e-07, No Iterations 4
smoothSolver:  Solving for Uy, Initial residual = 1.13862e-05, Final residual = 8.45004e-07, No Iterations 4
GAMG:  Solving for p, Initial residual = 1.0777e-05, Final residual = 9.69518e-08, No Iterations 18
GAMG:  Solving for p, Initial residual = 3.4701e-07, Final residual = 9.67215e-09, No Iterations 52
time step continuity errors : sum local = 8.33876e-09, global = -5.1812e-09, cumulative = 0.00013132
smoothSolver:  Solving for nuTilda, Initial residual = 2.26065e-05, Final residual = 2.09915e-06, No Iterations 6
ExecutionTime = 35.18 s  ClockTime = 36 s

forceCoeffs forceCoeffs write:
    Coefficient	Total	Pressure	Viscous	Internal
    Cd:	38.1391	27.6891	10.45	0
    Cd(f):	-772.004	-777.139	5.13513	0
    Cd(r):	810.143	804.828	5.3149	0
    Cl:	1582.15	1581.97	0.179772	0
    Cl(f):	414.878	414.913	-0.0348541	0
    Cl(r):	1167.27	1167.05	0.214626	0
    CmPitch:	-376.195	-376.07	-0.12474	0
    CmRoll:	-791.073	-790.983	-0.0898858	0
    CmYaw:	19.0696	13.8446	5.22501	0
    Cs:	-3.71245e-18	-9.86907e-19	-2.72554e-18	0
    Cs(f):	19.0696	13.8446	5.22501	0
    Cs(r):	-19.0696	-13.8446	-5.22501	0

    writing force and moment coefficient files.

forces forces write:
    Sum of forces
        Total    : (23.3602 969.065 2.27388e-18)
        Pressure : (16.9596 968.955 6.0448e-19)
        Viscous  : (6.40064 0.11011 1.6694e-18)
    Sum of moments
        Total    : (-484.532 11.6801 230.42)
        Pressure : (-484.477 8.47979 230.343)
        Viscous  : (-0.0550551 3.20032 0.0764032)
    writing force and moment files.

End

Finalising parallel run
