/*---------------------------------------------------------------------------*\
| =========                 |                                                 |
| \\      /  F ield         | OpenFOAM: The Open Source CFD Toolbox           |
|  \\    /   O peration     | Version:  2412                                  |
|   \\  /    A nd           | Website:  www.openfoam.com                      |
|    \\/     M anipulation  |                                                 |
\*---------------------------------------------------------------------------*/
Build  : _8dbc61e11c-20241220 OPENFOAM=2412 version=v2412
Arch   : "LSB;label=32;scalar=64"
Exec   : simpleFoam -parallel
Date   : Mar 30 2025
Time   : 00:57:04
Host   : RaiotdeMacBook-Air.local
PID    : 8778
I/O    : uncollated
Case   : /Users/raiot/Documents/Programing/VSCode/airfoilDemo/sims
nProcs : 4
Hosts  :
(
    (RaiotdeMacBook-Air.local 4)
)
Pstream initialized with:
    floatTransfer      : false
    maxCommsSize       : 0
    nProcsSimpleSum    : 0
    nonBlockingExchange: 0 (tuning: 0)
    exchange algorithm : 0
    commsType          : nonBlocking
    polling iterations : 0
trapFpe: Floating point exception trapping enabled (FOAM_SIGFPE).
fileModificationChecking : Monitoring run-time modified files using timeStampMaster (fileModificationSkew 5, maxFileModificationPolls 20)
allowSystemOperations : Allowing user-supplied system call operations

// * * * * * * * * * * * * * * * * * * * * * * * * * * * * * * * * * * * * * //
Create time

Create mesh for time = 0


SIMPLE: convergence criteria
    field p	 tolerance 1e-06
    field U	 tolerance 1e-06
    field nuTilda	 tolerance 1e-06

Reading field p

Reading field U

Reading/calculating face flux field phi

Selecting incompressible transport model Newtonian
Selecting turbulence model type RAS
Selecting RAS turbulence model SpalartAllmaras
Selecting patchDistMethod meshWave
ft2 term: inactive
RAS
{
    RASModel        SpalartAllmaras;
    turbulence      on;
    printCoeffs     on;
    sigmaNut        0.66666;
    kappa           0.41;
    Cb1             0.1355;
    Cb2             0.622;
    Cw2             0.3;
    Cw3             2;
    Cv1             7.1;
    Cs              0.3;
    ck              0.07;
    ft2             false;
    Ct3             1.2;
    Ct4             0.5;
}

No MRF models present

No finite volume options present

Starting time loop

forceCoeffs forceCoeffs:
    rho: rhoInf
    Freestream density (rhoInf) set to 1.225
    Not including porosity effects
    magUInf: 1
    lRef   : 1
    Aref   : 1
    rhoInf : 1.225
    Selecting all coefficients
    - Drag force: Cd
    - Drag force front: Cd(f)
    - Drag force rear: Cd(r)
    - Lift force: Cl
    - Lift force front: Cl(f)
    - Lift force rear: Cl(r)
    - Pitch moment: CmPitch
    - Roll moment: CmRoll
    - Yaw moment: CmYaw
    - Side force: Cs
    - Side force front: Cs(f)
    - Side force rear: Cs(r)


forces forces:
    p: p
    U: U
    rho: rhoInf
    Freestream density (rhoInf) set to 1.225
    Not including porosity effects

Time = 1

smoothSolver:  Solving for Ux, Initial residual = 1, Final residual = 0.0381132, No Iterations 2
smoothSolver:  Solving for Uy, Initial residual = 1, Final residual = 0.0327633, No Iterations 2
GAMG:  Solving for p, Initial residual = 1, Final residual = 0.00919749, No Iterations 57
GAMG:  Solving for p, Initial residual = 0.0030714, Final residual = 2.6903e-05, No Iterations 26
time step continuity errors : sum local = 0.000185114, global = 7.72187e-05, cumulative = 7.72187e-05
smoothSolver:  Solving for nuTilda, Initial residual = 1, Final residual = 0.0479588, No Iterations 2
ExecutionTime = 0.11 s  ClockTime = 0 s

forceCoeffs forceCoeffs write:
    Coefficient	Total	Pressure	Viscous	Internal
    Cd:	4366.72	3853.21	513.512	0
    Cd(f):	2181.73	1924.98	256.756	0
    Cd(r):	2184.99	1928.23	256.756	0
    Cl:	3.25542	3.25499	0.000424236	0
    Cl(f):	-0.632889	-0.632014	-0.00087461	0
    Cl(r):	3.88831	3.88701	0.00129885	0
    CmPitch:	-2.2606	-2.25951	-0.00108673	0
    CmRoll:	-1.62771	-1.6275	-0.000212118	0
    CmYaw:	2183.36	1926.61	256.756	0
    Cs:	-7.44094e-18	-5.72416e-20	-7.3837e-18	0
    Cs(f):	2183.36	1926.61	256.756	0
    Cs(r):	-2183.36	-1926.61	-256.756	0

    writing force and moment coefficient files.

forces forces write:
    Sum of forces
        Total    : (2674.62 1.99394 4.55757e-18)
        Pressure : (2360.09 1.99368 3.50605e-20)
        Viscous  : (314.526 0.000259844 4.52251e-18)
    Sum of moments
        Total    : (-0.996971 1337.31 1.38462)
        Pressure : (-0.996841 1180.05 1.38395)
        Viscous  : (-0.000129922 157.263 0.000665621)
    writing force and moment files.

Time = 2

smoothSolver:  Solving for Ux, Initial residual = 0.0944318, Final residual = 0.00702544, No Iterations 5
smoothSolver:  Solving for Uy, Initial residual = 0.382657, Final residual = 0.0292133, No Iterations 5
GAMG:  Solving for p, Initial residual = 0.103351, Final residual = 0.00101703, No Iterations 24
GAMG:  Solving for p, Initial residual = 0.0145518, Final residual = 0.000128277, No Iterations 44
time step continuity errors : sum local = 0.000239733, global = -7.98019e-05, cumulative = -2.58326e-06
smoothSolver:  Solving for nuTilda, Initial residual = 0.0193285, Final residual = 0.00151051, No Iterations 8
ExecutionTime = 0.15 s  ClockTime = 0 s

forceCoeffs forceCoeffs write:
    Coefficient	Total	Pressure	Viscous	Internal
    Cd:	645.949	417.839	228.11	0
    Cd(f):	315.335	201.287	114.048	0
    Cd(r):	330.614	216.552	114.062	0
    Cl:	15.2794	15.2655	0.0138954	0
    Cl(f):	173.431	173.417	0.0140311	0
    Cl(r):	-158.152	-158.152	-0.000135744	0
    CmPitch:	165.792	165.785	0.00708344	0
    CmRoll:	-7.63968	-7.63273	-0.0069477	0
    CmYaw:	322.974	208.92	114.055	0
    Cs:	2.17898e-18	-9.96975e-19	3.17595e-18	0
    Cs(f):	322.974	208.92	114.055	0
    Cs(r):	-322.974	-208.92	-114.055	0

    writing force and moment coefficient files.

forces forces write:
    Sum of forces
        Total    : (395.644 9.35861 -1.33462e-18)
        Pressure : (255.927 9.3501 6.10647e-19)
        Viscous  : (139.717 0.00851093 -1.94527e-18)
    Sum of moments
        Total    : (-4.67931 197.822 -101.547)
        Pressure : (-4.67505 127.963 -101.543)
        Viscous  : (-0.00425546 69.8586 -0.00433861)
    writing force and moment files.

Time = 3

smoothSolver:  Solving for Ux, Initial residual = 0.00943048, Final residual = 0.000725555, No Iterations 5
smoothSolver:  Solving for Uy, Initial residual = 0.0847354, Final residual = 0.00665268, No Iterations 5
GAMG:  Solving for p, Initial residual = 0.197605, Final residual = 0.00177243, No Iterations 23
GAMG:  Solving for p, Initial residual = 0.0125737, Final residual = 0.000106256, No Iterations 46
time step continuity errors : sum local = 5.20335e-05, global = -1.62788e-05, cumulative = -1.88621e-05
smoothSolver:  Solving for nuTilda, Initial residual = 0.00524406, Final residual = 0.000452977, No Iterations 10
ExecutionTime = 0.2 s  ClockTime = 0 s

forceCoeffs forceCoeffs write:
    Coefficient	Total	Pressure	Viscous	Internal
    Cd:	178.022	20.541	157.481	0
    Cd(f):	107.062	28.3204	78.7417	0
    Cd(r):	70.9599	-7.77947	78.7394	0
    Cl:	-36.1023	-36.0999	-0.00234914	0
    Cl(f):	24.5811	24.5902	-0.0090902	0
    Cl(r):	-60.6834	-60.6902	0.00674106	0
    CmPitch:	42.6323	42.6402	-0.00791563	0
    CmRoll:	18.0511	18.05	0.00117457	0
    CmYaw:	89.011	10.2705	78.7405	0
    Cs:	-2.18146e-19	-1.09588e-19	-1.08559e-19	0
    Cs(f):	89.011	10.2705	78.7405	0
    Cs(r):	-89.011	-10.2705	-78.7405	0

    writing force and moment coefficient files.

forces forces write:
    Sum of forces
        Total    : (109.038 -22.1126 1.33615e-19)
        Pressure : (12.5813 -22.1112 6.71225e-20)
        Viscous  : (96.4571 -0.00143885 6.64922e-20)
    Sum of moments
        Total    : (11.0563 54.5192 -26.1123)
        Pressure : (11.0556 6.29067 -26.1171)
        Viscous  : (0.000719425 48.2286 0.00484832)
    writing force and moment files.

Time = 4

smoothSolver:  Solving for Ux, Initial residual = 0.00344227, Final residual = 0.000296695, No Iterations 4
smoothSolver:  Solving for Uy, Initial residual = 0.0274395, Final residual = 0.00207156, No Iterations 5
GAMG:  Solving for p, Initial residual = 0.184339, Final residual = 0.00177607, No Iterations 24
GAMG:  Solving for p, Initial residual = 0.00547275, Final residual = 4.66348e-05, No Iterations 38
time step continuity errors : sum local = 1.33782e-05, global = -5.73277e-06, cumulative = -2.45948e-05
smoothSolver:  Solving for nuTilda, Initial residual = 0.00359228, Final residual = 0.000348187, No Iterations 10
ExecutionTime = 0.24 s  ClockTime = 0 s

forceCoeffs forceCoeffs write:
    Coefficient	Total	Pressure	Viscous	Internal
    Cd:	118.67	-2.68582	121.356	0
    Cd(f):	59.0507	-1.62546	60.6762	0
    Cd(r):	59.619	-1.06037	60.6793	0
    Cl:	0.568255	0.565094	0.00316098	0
    Cl(f):	-2.70593	-2.70491	-0.00101404	0
    Cl(r):	3.27418	3.27001	0.00417502	0
    CmPitch:	-2.99006	-2.98746	-0.00259453	0
    CmRoll:	-0.284128	-0.282547	-0.00158049	0
    CmYaw:	59.3349	-1.34291	60.6778	0
    Cs:	1.94455e-19	2.03699e-19	-9.24335e-21	0
    Cs(f):	59.3349	-1.34291	60.6778	0
    Cs(r):	-59.3349	1.34291	-60.6778	0

    writing force and moment coefficient files.

forces forces write:
    Sum of forces
        Total    : (72.6852 0.348056 -1.19104e-19)
        Pressure : (-1.64507 0.34612 -1.24765e-19)
        Viscous  : (74.3303 0.0019361 5.66155e-21)
    Sum of moments
        Total    : (-0.174028 36.3426 1.83141)
        Pressure : (-0.17306 -0.822534 1.82982)
        Viscous  : (-0.00096805 37.1651 0.00158915)
    writing force and moment files.

Time = 5

smoothSolver:  Solving for Ux, Initial residual = 0.00224197, Final residual = 0.000210549, No Iterations 4
smoothSolver:  Solving for Uy, Initial residual = 0.0208321, Final residual = 0.00150404, No Iterations 5
GAMG:  Solving for p, Initial residual = 0.0623023, Final residual = 0.000620658, No Iterations 22
GAMG:  Solving for p, Initial residual = 0.00197712, Final residual = 1.76661e-05, No Iterations 44
time step continuity errors : sum local = 4.95429e-06, global = 2.24126e-06, cumulative = -2.23536e-05
smoothSolver:  Solving for nuTilda, Initial residual = 0.003364, Final residual = 0.000302531, No Iterations 11
ExecutionTime = 0.29 s  ClockTime = 0 s

forceCoeffs forceCoeffs write:
    Coefficient	Total	Pressure	Viscous	Internal
    Cd:	100.717	1.08029	99.637	0
    Cd(f):	43.0771	-6.74009	49.8172	0
    Cd(r):	57.6402	7.82038	49.8198	0
    Cl:	14.5631	14.5605	0.00262105	0
    Cl(f):	-1.72931	-1.72839	-0.000912854	0
    Cl(r):	16.2924	16.2889	0.00353391	0
    CmPitch:	-9.01085	-9.00863	-0.00222338	0
    CmRoll:	-7.28155	-7.28023	-0.00131053	0
    CmYaw:	50.3587	0.540146	49.8185	0
    Cs:	4.04735e-19	1.49399e-19	2.55337e-19	0
    Cs(f):	50.3587	0.540146	49.8185	0
    Cs(r):	-50.3587	-0.540146	-49.8185	0

    writing force and moment coefficient files.

forces forces write:
    Sum of forces
        Total    : (61.6894 8.91989 -2.479e-19)
        Pressure : (0.661679 8.91829 -9.15067e-20)
        Viscous  : (61.0277 0.0016054 -1.56394e-19)
    Sum of moments
        Total    : (-4.45995 30.8447 5.51915)
        Pressure : (-4.45914 0.330839 5.51778)
        Viscous  : (-0.000802698 30.5138 0.00136182)
    writing force and moment files.

Time = 6

smoothSolver:  Solving for Ux, Initial residual = 0.00185385, Final residual = 0.000184093, No Iterations 4
smoothSolver:  Solving for Uy, Initial residual = 0.0195276, Final residual = 0.00146102, No Iterations 5
GAMG:  Solving for p, Initial residual = 0.0339582, Final residual = 0.000271116, No Iterations 18
GAMG:  Solving for p, Initial residual = 0.000895811, Final residual = 8.41829e-06, No Iterations 42
time step continuity errors : sum local = 2.34392e-06, global = 9.7229e-07, cumulative = -2.13813e-05
smoothSolver:  Solving for nuTilda, Initial residual = 0.00376849, Final residual = 0.000358116, No Iterations 11
ExecutionTime = 0.33 s  ClockTime = 0 s

forceCoeffs forceCoeffs write:
    Coefficient	Total	Pressure	Viscous	Internal
    Cd:	89.0641	3.659	85.4051	0
    Cd(f):	35.944	-6.75714	42.7012	0
    Cd(r):	53.1201	10.4161	42.7039	0
    Cl:	17.176	17.1733	0.00274824	0
    Cl(f):	-0.281001	-0.279834	-0.00116738	0
    Cl(r):	17.457	17.4531	0.00391562	0
    CmPitch:	-8.86902	-8.86648	-0.0025415	0
    CmRoll:	-8.58802	-8.58664	-0.00137412	0
    CmYaw:	44.5321	1.8295	42.7026	0
    Cs:	4.30139e-19	6.46831e-20	3.65456e-19	0
    Cs(f):	44.5321	1.8295	42.7026	0
    Cs(r):	-44.5321	-1.8295	-42.7026	0

    writing force and moment coefficient files.

forces forces write:
    Sum of forces
        Total    : (54.5518 10.5203 -2.6346e-19)
        Pressure : (2.24114 10.5186 -3.96184e-20)
        Viscous  : (52.3106 0.0016833 -2.23842e-19)
    Sum of moments
        Total    : (-5.26016 27.2759 5.43227)
        Pressure : (-5.25932 1.12057 5.43072)
        Viscous  : (-0.000841649 26.1553 0.00155667)
    writing force and moment files.

Time = 7

smoothSolver:  Solving for Ux, Initial residual = 0.00161354, Final residual = 0.000107334, No Iterations 5
smoothSolver:  Solving for Uy, Initial residual = 0.0184098, Final residual = 0.00141807, No Iterations 5
GAMG:  Solving for p, Initial residual = 0.0225371, Final residual = 0.000185244, No Iterations 16
GAMG:  Solving for p, Initial residual = 0.000585082, Final residual = 5.33045e-06, No Iterations 42
time step continuity errors : sum local = 1.47926e-06, global = 6.05472e-07, cumulative = -2.07758e-05
smoothSolver:  Solving for nuTilda, Initial residual = 0.00482105, Final residual = 0.000474838, No Iterations 11
ExecutionTime = 0.37 s  ClockTime = 0 s

forceCoeffs forceCoeffs write:
    Coefficient	Total	Pressure	Viscous	Internal
    Cd:	79.9784	4.85387	75.1246	0
    Cd(f):	31.5803	-5.98058	37.5609	0
    Cd(r):	48.3982	10.8345	37.5637	0
    Cl:	16.8179	16.815	0.00284381	0
    Cl(f):	0.333966	0.335365	-0.00139877	0
    Cl(r):	16.4839	16.4797	0.00424258	0
    CmPitch:	-8.07497	-8.07215	-0.00282068	0
    CmRoll:	-8.40894	-8.40752	-0.0014219	0
    CmYaw:	39.9892	2.42693	37.5623	0
    Cs:	4.14948e-19	2.95319e-20	3.85416e-19	0
    Cs(f):	39.9892	2.42693	37.5623	0
    Cs(r):	-39.9892	-2.42693	-37.5623	0

    writing force and moment coefficient files.

forces forces write:
    Sum of forces
        Total    : (48.9868 10.3009 -2.54156e-19)
        Pressure : (2.97299 10.2992 -1.80883e-20)
        Viscous  : (46.0138 0.00174183 -2.36067e-19)
    Sum of moments
        Total    : (-5.15047 24.4934 4.94592)
        Pressure : (-5.1496 1.4865 4.94419)
        Viscous  : (-0.000870917 23.0069 0.00172766)
    writing force and moment files.

Time = 8

smoothSolver:  Solving for Ux, Initial residual = 0.00141366, Final residual = 9.41866e-05, No Iterations 5
smoothSolver:  Solving for Uy, Initial residual = 0.0178572, Final residual = 0.00138957, No Iterations 5
GAMG:  Solving for p, Initial residual = 0.0156414, Final residual = 0.000149772, No Iterations 13
GAMG:  Solving for p, Initial residual = 0.000394703, Final residual = 3.40544e-06, No Iterations 44
time step continuity errors : sum local = 9.48812e-07, global = 3.23156e-07, cumulative = -2.04527e-05
smoothSolver:  Solving for nuTilda, Initial residual = 0.0073712, Final residual = 0.000638081, No Iterations 12
ExecutionTime = 0.41 s  ClockTime = 0 s

forceCoeffs forceCoeffs write:
    Coefficient	Total	Pressure	Viscous	Internal
    Cd:	72.6876	5.27947	67.4081	0
    Cd(f):	28.1286	-5.57403	33.7026	0
    Cd(r):	44.559	10.8535	33.7055	0
    Cl:	16.4304	16.4275	0.00289667	0
    Cl(f):	0.365935	0.367447	-0.00151184	0
    Cl(r):	16.0645	16.0601	0.0044085	0
    CmPitch:	-7.84928	-7.84632	-0.00296017	0
    CmRoll:	-8.21521	-8.21376	-0.00144833	0
    CmYaw:	36.3438	2.63974	33.704	0
    Cs:	4.11482e-19	2.5894e-20	3.85588e-19	0
    Cs(f):	36.3438	2.63974	33.704	0
    Cs(r):	-36.3438	-2.63974	-33.704	0

    writing force and moment coefficient files.

forces forces write:
    Sum of forces
        Total    : (44.5211 10.0636 -2.52033e-19)
        Pressure : (3.23368 10.0619 -1.58601e-20)
        Viscous  : (41.2875 0.00177421 -2.36172e-19)
    Sum of moments
        Total    : (-5.03182 22.2606 4.80768)
        Pressure : (-5.03093 1.61684 4.80587)
        Viscous  : (-0.000887104 20.6437 0.00181311)
    writing force and moment files.

Time = 9

smoothSolver:  Solving for Ux, Initial residual = 0.00126145, Final residual = 8.4565e-05, No Iterations 5
smoothSolver:  Solving for Uy, Initial residual = 0.0172456, Final residual = 0.00134971, No Iterations 5
GAMG:  Solving for p, Initial residual = 0.0112578, Final residual = 0.000101531, No Iterations 15
GAMG:  Solving for p, Initial residual = 0.000284091, Final residual = 2.5508e-06, No Iterations 44
time step continuity errors : sum local = 7.18694e-07, global = 2.367e-07, cumulative = -2.0216e-05
smoothSolver:  Solving for nuTilda, Initial residual = 0.0182292, Final residual = 0.00159366, No Iterations 12
ExecutionTime = 0.45 s  ClockTime = 0 s

forceCoeffs forceCoeffs write:
    Coefficient	Total	Pressure	Viscous	Internal
    Cd:	66.9035	5.55821	61.3453	0
    Cd(f):	25.4306	-5.24056	30.6711	0
    Cd(r):	41.4729	10.7988	30.6741	0
    Cl:	16.0423	16.0393	0.0029924	0
    Cl(f):	0.299798	0.30144	-0.00164145	0
    Cl(r):	15.7425	15.7379	0.00463385	0
    CmPitch:	-7.72136	-7.71823	-0.00313765	0
    CmRoll:	-8.02116	-8.01967	-0.0014962	0
    CmYaw:	33.4517	2.7791	30.6726	0
    Cs:	4.16933e-19	3.09167e-20	3.86016e-19	0
    Cs(f):	33.4517	2.7791	30.6726	0
    Cs(r):	-33.4517	-2.7791	-30.6726	0

    writing force and moment coefficient files.

forces forces write:
    Sum of forces
        Total    : (40.9784 9.82592 -2.55371e-19)
        Pressure : (3.4044 9.82409 -1.89365e-20)
        Viscous  : (37.574 0.00183284 -2.36435e-19)
    Sum of moments
        Total    : (-4.91296 20.4892 4.72934)
        Pressure : (-4.91205 1.7022 4.72741)
        Viscous  : (-0.000916422 18.787 0.00192181)
    writing force and moment files.

Time = 10

smoothSolver:  Solving for Ux, Initial residual = 0.00113973, Final residual = 7.68898e-05, No Iterations 5
smoothSolver:  Solving for Uy, Initial residual = 0.0166175, Final residual = 0.00130887, No Iterations 5
GAMG:  Solving for p, Initial residual = 0.00844127, Final residual = 7.34728e-05, No Iterations 17
GAMG:  Solving for p, Initial residual = 0.000221295, Final residual = 2.17793e-06, No Iterations 44
time step continuity errors : sum local = 6.21447e-07, global = 2.16747e-07, cumulative = -1.99992e-05
smoothSolver:  Solving for nuTilda, Initial residual = 0.0137133, Final residual = 0.00119136, No Iterations 12
ExecutionTime = 0.49 s  ClockTime = 0 s

forceCoeffs forceCoeffs write:
    Coefficient	Total	Pressure	Viscous	Internal
    Cd:	62.2244	5.80001	56.4244	0
    Cd(f):	23.2693	-4.94138	28.2107	0
    Cd(r):	38.9551	10.7414	28.2137	0
    Cl:	15.6858	15.6828	0.0030619	0
    Cl(f):	0.24515	0.246921	-0.00177095	0
    Cl(r):	15.4407	15.4359	0.00483286	0
    CmPitch:	-7.59777	-7.59446	-0.00330191	0
    CmRoll:	-7.84292	-7.84139	-0.00153095	0
    CmYaw:	31.1122	2.90001	28.2122	0
    Cs:	4.22688e-19	3.35856e-20	3.89102e-19	0
    Cs(f):	31.1122	2.90001	28.2122	0
    Cs(r):	-31.1122	-2.90001	-28.2122	0

    writing force and moment coefficient files.

forces forces write:
    Sum of forces
        Total    : (38.1125 9.60757 -2.58896e-19)
        Pressure : (3.55251 9.6057 -2.05712e-20)
        Viscous  : (34.5599 0.00187542 -2.38325e-19)
    Sum of moments
        Total    : (-4.80379 19.0562 4.65363)
        Pressure : (-4.80285 1.77625 4.65161)
        Viscous  : (-0.000937708 17.28 0.00202242)
    writing force and moment files.

Time = 11

smoothSolver:  Solving for Ux, Initial residual = 0.00103966, Final residual = 7.04286e-05, No Iterations 5
smoothSolver:  Solving for Uy, Initial residual = 0.0160149, Final residual = 0.00126933, No Iterations 5
GAMG:  Solving for p, Initial residual = 0.00653836, Final residual = 5.8384e-05, No Iterations 17
GAMG:  Solving for p, Initial residual = 0.000180986, Final residual = 1.65822e-06, No Iterations 44
time step continuity errors : sum local = 4.78309e-07, global = 1.64648e-07, cumulative = -1.98346e-05
smoothSolver:  Solving for nuTilda, Initial residual = 0.00629175, Final residual = 0.000544312, No Iterations 12
ExecutionTime = 0.53 s  ClockTime = 0 s

forceCoeffs forceCoeffs write:
    Coefficient	Total	Pressure	Viscous	Internal
    Cd:	58.3305	6.00001	52.3305	0
    Cd(f):	21.4947	-4.66902	26.1637	0
    Cd(r):	36.8358	10.669	26.1668	0
    Cl:	15.3412	15.3381	0.00310067	0
    Cl(f):	0.21091	0.212797	-0.00188666	0
    Cl(r):	15.1302	15.1253	0.00498733	0
    CmPitch:	-7.45967	-7.45623	-0.00343699	0
    CmRoll:	-7.67058	-7.66903	-0.00155033	0
    CmYaw:	29.1652	3.00001	26.1652	0
    Cs:	4.25462e-19	3.26026e-20	3.92859e-19	0
    Cs(f):	29.1652	3.00001	26.1652	0
    Cs(r):	-29.1652	-3.00001	-26.1652	0

    writing force and moment coefficient files.

forces forces write:
    Sum of forces
        Total    : (35.7274 9.39646 -2.60595e-19)
        Pressure : (3.67501 9.39456 -1.99691e-20)
        Viscous  : (32.0524 0.00189916 -2.40626e-19)
    Sum of moments
        Total    : (-4.69823 17.8637 4.56905)
        Pressure : (-4.69728 1.8375 4.56694)
        Viscous  : (-0.00094958 16.0262 0.00210516)
    writing force and moment files.

Time = 12

smoothSolver:  Solving for Ux, Initial residual = 0.000954616, Final residual = 6.48681e-05, No Iterations 5
smoothSolver:  Solving for Uy, Initial residual = 0.015479, Final residual = 0.00123281, No Iterations 5
GAMG:  Solving for p, Initial residual = 0.00522078, Final residual = 4.40377e-05, No Iterations 17
GAMG:  Solving for p, Initial residual = 0.00015165, Final residual = 1.32403e-06, No Iterations 42
time step continuity errors : sum local = 3.85315e-07, global = 1.27612e-07, cumulative = -1.97069e-05
smoothSolver:  Solving for nuTilda, Initial residual = 0.0040754, Final residual = 0.000348664, No Iterations 12
ExecutionTime = 0.57 s  ClockTime = 0 s

forceCoeffs forceCoeffs write:
    Coefficient	Total	Pressure	Viscous	Internal
    Cd:	55.0069	6.14848	48.8585	0
    Cd(f):	20.0009	-4.42673	24.4277	0
    Cd(r):	35.006	10.5752	24.4308	0
    Cl:	15.005	15.0019	0.00310426	0
    Cl(f):	0.196263	0.198269	-0.00200672	0
    Cl(r):	14.8088	14.8037	0.00511097	0
    CmPitch:	-7.30626	-7.3027	-0.00355885	0
    CmRoll:	-7.50252	-7.50097	-0.00155213	0
    CmYaw:	27.5035	3.07424	24.4292	0
    Cs:	4.25925e-19	2.99456e-20	3.95979e-19	0
    Cs(f):	27.5035	3.07424	24.4292	0
    Cs(r):	-27.5035	-3.07424	-24.4292	0

    writing force and moment coefficient files.

forces forces write:
    Sum of forces
        Total    : (33.6918 9.19059 -2.60879e-19)
        Pressure : (3.76594 9.18869 -1.83417e-20)
        Viscous  : (29.9258 0.00190136 -2.42537e-19)
    Sum of moments
        Total    : (-4.59529 16.8459 4.47508)
        Pressure : (-4.59434 1.88297 4.4729)
        Viscous  : (-0.000950679 14.9629 0.00217979)
    writing force and moment files.

Time = 13

smoothSolver:  Solving for Ux, Initial residual = 0.000883583, Final residual = 6.01135e-05, No Iterations 5
smoothSolver:  Solving for Uy, Initial residual = 0.014997, Final residual = 0.0011986, No Iterations 5
GAMG:  Solving for p, Initial residual = 0.0043037, Final residual = 3.54888e-05, No Iterations 17
GAMG:  Solving for p, Initial residual = 0.000136513, Final residual = 1.23821e-06, No Iterations 40
time step continuity errors : sum local = 3.62537e-07, global = 1.18877e-07, cumulative = -1.95881e-05
smoothSolver:  Solving for nuTilda, Initial residual = 0.00301329, Final residual = 0.000300683, No Iterations 11
ExecutionTime = 0.61 s  ClockTime = 0 s

forceCoeffs forceCoeffs write:
    Coefficient	Total	Pressure	Viscous	Internal
    Cd:	52.1158	6.24722	45.8686	0
    Cd(f):	18.721	-4.21174	22.9328	0
    Cd(r):	33.3948	10.459	22.9358	0
    Cl:	14.6737	14.6707	0.00304272	0
    Cl(f):	0.201547	0.203661	-0.00211412	0
    Cl(r):	14.4722	14.467	0.00515684	0
    CmPitch:	-7.13533	-7.13169	-0.00363548	0
    CmRoll:	-7.33687	-7.33535	-0.00152136	0
    CmYaw:	26.0579	3.12361	22.9343	0
    Cs:	4.2592e-19	2.82664e-20	3.97653e-19	0
    Cs(f):	26.0579	3.12361	22.9343	0
    Cs(r):	-26.0579	-3.12361	-22.9343	0

    writing force and moment coefficient files.

forces forces write:
    Sum of forces
        Total    : (31.9209 8.98767 -2.60876e-19)
        Pressure : (3.82643 8.98581 -1.73132e-20)
        Viscous  : (28.0945 0.00186367 -2.43563e-19)
    Sum of moments
        Total    : (-4.49383 15.9605 4.37039)
        Pressure : (-4.4929 1.91321 4.36816)
        Viscous  : (-0.000931833 14.0472 0.00222673)
    writing force and moment files.

Time = 14

smoothSolver:  Solving for Ux, Initial residual = 0.000825202, Final residual = 5.6086e-05, No Iterations 5
smoothSolver:  Solving for Uy, Initial residual = 0.0145558, Final residual = 0.00116711, No Iterations 5
GAMG:  Solving for p, Initial residual = 0.00361423, Final residual = 3.0544e-05, No Iterations 17
GAMG:  Solving for p, Initial residual = 0.000130637, Final residual = 1.22909e-06, No Iterations 38
time step continuity errors : sum local = 3.61088e-07, global = 1.19439e-07, cumulative = -1.94686e-05
smoothSolver:  Solving for nuTilda, Initial residual = 0.00242858, Final residual = 0.000237292, No Iterations 11
ExecutionTime = 0.65 s  ClockTime = 0 s

forceCoeffs forceCoeffs write:
    Coefficient	Total	Pressure	Viscous	Internal
    Cd:	49.5575	6.29619	43.2613	0
    Cd(f):	17.601	-4.02821	21.6292	0
    Cd(r):	31.9565	10.3244	21.6321	0
    Cl:	14.3556	14.3526	0.00293793	0
    Cl(f):	0.230696	0.232915	-0.00221964	0
    Cl(r):	14.1249	14.1197	0.00515757	0
    CmPitch:	-6.94708	-6.9434	-0.0036886	0
    CmRoll:	-7.17778	-7.17631	-0.00146896	0
    CmYaw:	24.7788	3.1481	21.6307	0
    Cs:	4.26796e-19	2.77679e-20	3.99028e-19	0
    Cs(f):	24.7788	3.1481	21.6307	0
    Cs(r):	-24.7788	-3.1481	-21.6307	0

    writing force and moment coefficient files.

forces forces write:
    Sum of forces
        Total    : (30.354 8.79278 -2.61413e-19)
        Pressure : (3.85642 8.79098 -1.70079e-20)
        Viscous  : (26.4976 0.00179948 -2.44405e-19)
    Sum of moments
        Total    : (-4.39639 15.177 4.25509)
        Pressure : (-4.39549 1.92821 4.25283)
        Viscous  : (-0.00089974 13.2488 0.00225927)
    writing force and moment files.

Time = 15

smoothSolver:  Solving for Ux, Initial residual = 0.000777076, Final residual = 5.26484e-05, No Iterations 5
smoothSolver:  Solving for Uy, Initial residual = 0.0141585, Final residual = 0.0011385, No Iterations 5
GAMG:  Solving for p, Initial residual = 0.00317732, Final residual = 2.57941e-05, No Iterations 18
GAMG:  Solving for p, Initial residual = 0.000128018, Final residual = 1.13441e-06, No Iterations 36
time step continuity errors : sum local = 3.33604e-07, global = 1.094e-07, cumulative = -1.93592e-05
smoothSolver:  Solving for nuTilda, Initial residual = 0.00205341, Final residual = 0.000197098, No Iterations 11
ExecutionTime = 0.69 s  ClockTime = 0 s

forceCoeffs forceCoeffs write:
    Coefficient	Total	Pressure	Viscous	Internal
    Cd:	47.2598	6.29588	40.964	0
    Cd(f):	16.6135	-3.86712	20.4806	0
    Cd(r):	30.6464	10.163	20.4834	0
    Cl:	14.0329	14.0301	0.00277589	0
    Cl(f):	0.279847	0.282164	-0.00231635	0
    Cl(r):	13.753	13.748	0.00509223	0
    CmPitch:	-6.7366	-6.7329	-0.00370429	0
    CmRoll:	-7.01645	-7.01506	-0.00138794	0
    CmYaw:	23.6299	3.14794	20.482	0
    Cs:	4.28779e-19	2.81882e-20	4.0059e-19	0
    Cs(f):	23.6299	3.14794	20.482	0
    Cs(r):	-23.6299	-3.14794	-20.482	0

    writing force and moment coefficient files.

forces forces write:
    Sum of forces
        Total    : (28.9467 8.59515 -2.62627e-19)
        Pressure : (3.85623 8.59345 -1.72653e-20)
        Viscous  : (25.0904 0.00170023 -2.45362e-19)
    Sum of moments
        Total    : (-4.29757 14.4733 4.12617)
        Pressure : (-4.29672 1.92811 4.1239)
        Viscous  : (-0.000850115 12.5452 0.00226888)
    writing force and moment files.

Time = 16

smoothSolver:  Solving for Ux, Initial residual = 0.000737441, Final residual = 4.96662e-05, No Iterations 5
smoothSolver:  Solving for Uy, Initial residual = 0.0138067, Final residual = 0.0011124, No Iterations 5
GAMG:  Solving for p, Initial residual = 0.00286855, Final residual = 2.3683e-05, No Iterations 20
GAMG:  Solving for p, Initial residual = 0.000128277, Final residual = 1.23258e-06, No Iterations 32
time step continuity errors : sum local = 3.61909e-07, global = 1.19584e-07, cumulative = -1.92396e-05
smoothSolver:  Solving for nuTilda, Initial residual = 0.00179035, Final residual = 0.000168618, No Iterations 11
ExecutionTime = 0.72 s  ClockTime = 0 s

forceCoeffs forceCoeffs write:
    Coefficient	Total	Pressure	Viscous	Internal
    Cd:	45.1711	6.24937	38.9217	0
    Cd(f):	15.7307	-3.72883	19.4596	0
    Cd(r):	29.4403	9.9782	19.4621	0
    Cl:	13.7096	13.707	0.002572	0
    Cl(f):	0.350546	0.35296	-0.00241351	0
    Cl(r):	13.3591	13.3541	0.00498551	0
    CmPitch:	-6.50426	-6.50056	-0.00369951	0
    CmRoll:	-6.8548	-6.85352	-0.001286	0
    CmYaw:	22.5855	3.12469	19.4608	0
    Cs:	4.316e-19	2.78489e-20	4.03751e-19	0
    Cs(f):	22.5855	3.12469	19.4608	0
    Cs(r):	-22.5855	-3.12469	-19.4608	0

    writing force and moment coefficient files.

forces forces write:
    Sum of forces
        Total    : (27.6673 8.39714 -2.64355e-19)
        Pressure : (3.82774 8.39556 -1.70575e-20)
        Viscous  : (23.8395 0.00157535 -2.47297e-19)
    Sum of moments
        Total    : (-4.19857 13.8336 3.98386)
        Pressure : (-4.19778 1.91387 3.98159)
        Viscous  : (-0.000787674 11.9198 0.00226595)
    writing force and moment files.

Time = 17

smoothSolver:  Solving for Ux, Initial residual = 0.000704871, Final residual = 4.70709e-05, No Iterations 5
smoothSolver:  Solving for Uy, Initial residual = 0.013489, Final residual = 0.00108865, No Iterations 5
GAMG:  Solving for p, Initial residual = 0.00270182, Final residual = 2.59042e-05, No Iterations 21
GAMG:  Solving for p, Initial residual = 0.00013013, Final residual = 1.22522e-06, No Iterations 29
time step continuity errors : sum local = 3.58321e-07, global = 1.26268e-07, cumulative = -1.91134e-05
smoothSolver:  Solving for nuTilda, Initial residual = 0.00158309, Final residual = 0.000146871, No Iterations 11
ExecutionTime = 0.76 s  ClockTime = 0 s

forceCoeffs forceCoeffs write:
    Coefficient	Total	Pressure	Viscous	Internal
    Cd:	43.2562	6.1638	37.0924	0
    Cd(f):	14.9366	-3.60847	18.545	0
    Cd(r):	28.3196	9.77228	18.5474	0
    Cl:	13.3831	13.3807	0.00230755	0
    Cl(f):	0.442212	0.444715	-0.00250284	0
    Cl(r):	12.9408	12.936	0.00481039	0
    CmPitch:	-6.24932	-6.24566	-0.00365662	0
    CmRoll:	-6.69153	-6.69037	-0.00115378	0
    CmYaw:	21.6281	3.0819	18.5462	0
    Cs:	4.34322e-19	2.61688e-20	4.08153e-19	0
    Cs(f):	21.6281	3.0819	18.5462	0
    Cs(r):	-21.6281	-3.0819	-18.5462	0

    writing force and moment coefficient files.

forces forces write:
    Sum of forces
        Total    : (26.4944 8.19712 -2.66022e-19)
        Pressure : (3.77533 8.19571 -1.60284e-20)
        Viscous  : (22.7191 0.00141338 -2.49994e-19)
    Sum of moments
        Total    : (-4.09856 13.2472 3.82771)
        Pressure : (-4.09785 1.88767 3.82547)
        Viscous  : (-0.000706688 11.3595 0.00223968)
    writing force and moment files.

Time = 18

smoothSolver:  Solving for Ux, Initial residual = 0.000678034, Final residual = 6.71261e-05, No Iterations 4
smoothSolver:  Solving for Uy, Initial residual = 0.013202, Final residual = 0.00106701, No Iterations 5
GAMG:  Solving for p, Initial residual = 0.00261774, Final residual = 2.59658e-05, No Iterations 24
GAMG:  Solving for p, Initial residual = 0.00012791, Final residual = 1.08706e-06, No Iterations 36
time step continuity errors : sum local = 3.16347e-07, global = 1.07227e-07, cumulative = -1.90062e-05
smoothSolver:  Solving for nuTilda, Initial residual = 0.00141079, Final residual = 0.000129547, No Iterations 11
ExecutionTime = 0.81 s  ClockTime = 0 s

forceCoeffs forceCoeffs write:
    Coefficient	Total	Pressure	Viscous	Internal
    Cd:	41.5539	6.05094	35.5029	0
    Cd(f):	14.7202	-3.03027	17.7505	0
    Cd(r):	26.8337	9.08121	17.7525	0
    Cl:	12.1135	12.1115	0.00199675	0
    Cl(f):	0.584547	0.58714	-0.00259279	0
    Cl(r):	11.5289	11.5243	0.00458954	0
    CmPitch:	-5.47219	-5.4686	-0.00359117	0
    CmRoll:	-6.05674	-6.05574	-0.000998374	0
    CmYaw:	20.7769	3.02547	17.7515	0
    Cs:	4.34663e-19	2.24467e-20	4.12216e-19	0
    Cs(f):	20.7769	3.02547	17.7515	0
    Cs(r):	-20.7769	-3.02547	-17.7515	0

    writing force and moment coefficient files.

forces forces write:
    Sum of forces
        Total    : (25.4518 7.41951 -2.66231e-19)
        Pressure : (3.7062 7.41828 -1.37486e-20)
        Viscous  : (21.7456 0.00122301 -2.52482e-19)
    Sum of moments
        Total    : (-3.70975 12.7259 3.35172)
        Pressure : (-3.70914 1.8531 3.34952)
        Viscous  : (-0.000611504 10.8728 0.00219959)
    writing force and moment files.

Time = 19

smoothSolver:  Solving for Ux, Initial residual = 0.000662128, Final residual = 6.54518e-05, No Iterations 4
smoothSolver:  Solving for Uy, Initial residual = 0.0128734, Final residual = 0.00103826, No Iterations 5
GAMG:  Solving for p, Initial residual = 0.00242033, Final residual = 2.05943e-05, No Iterations 25
GAMG:  Solving for p, Initial residual = 0.000125925, Final residual = 1.14037e-06, No Iterations 25
time step continuity errors : sum local = 3.29413e-07, global = 1.38142e-07, cumulative = -1.8868e-05
smoothSolver:  Solving for nuTilda, Initial residual = 0.00126953, Final residual = 0.000115313, No Iterations 11
ExecutionTime = 0.84 s  ClockTime = 0 s

forceCoeffs forceCoeffs write:
    Coefficient	Total	Pressure	Viscous	Internal
    Cd:	39.9538	5.90302	34.0507	0
    Cd(f):	14.2092	-2.81538	17.0245	0
    Cd(r):	25.7446	8.7184	17.0262	0
    Cl:	11.5354	11.5338	0.00166422	0
    Cl(f):	0.735571	0.738258	-0.00268676	0
    Cl(r):	10.7999	10.7955	0.00435098	0
    CmPitch:	-5.03215	-5.02863	-0.00351887	0
    CmRoll:	-5.76772	-5.76689	-0.000832112	0
    CmYaw:	19.9769	2.95151	17.0254	0
    Cs:	4.34941e-19	2.0918e-20	4.14023e-19	0
    Cs(f):	19.9769	2.95151	17.0254	0
    Cs(r):	-19.9769	-2.95151	-17.0254	0

    writing force and moment coefficient files.

forces forces write:
    Sum of forces
        Total    : (24.4717 7.06546 -2.66401e-19)
        Pressure : (3.6156 7.06444 -1.28123e-20)
        Viscous  : (20.8561 0.00101934 -2.53589e-19)
    Sum of moments
        Total    : (-3.53273 12.2358 3.08219)
        Pressure : (-3.53222 1.8078 3.08004)
        Viscous  : (-0.000509668 10.428 0.00215531)
    writing force and moment files.

Time = 20

smoothSolver:  Solving for Ux, Initial residual = 0.000643914, Final residual = 6.30738e-05, No Iterations 4
smoothSolver:  Solving for Uy, Initial residual = 0.012635, Final residual = 0.00101919, No Iterations 5
GAMG:  Solving for p, Initial residual = 0.00242943, Final residual = 2.27448e-05, No Iterations 25
GAMG:  Solving for p, Initial residual = 0.000129744, Final residual = 1.1699e-06, No Iterations 22
time step continuity errors : sum local = 3.34645e-07, global = -1.59958e-07, cumulative = -1.9028e-05
smoothSolver:  Solving for nuTilda, Initial residual = 0.00115357, Final residual = 0.000103511, No Iterations 11
ExecutionTime = 0.89 s  ClockTime = 0 s

forceCoeffs forceCoeffs write:
    Coefficient	Total	Pressure	Viscous	Internal
    Cd:	38.449	5.72754	32.7215	0
    Cd(f):	13.6786	-2.68154	16.3601	0
    Cd(r):	24.7705	8.40907	16.3614	0
    Cl:	11.0919	11.0906	0.00128627	0
    Cl(f):	0.91682	0.919597	-0.00277669	0
    Cl(r):	10.1751	10.171	0.00406296	0
    CmPitch:	-4.62913	-4.62571	-0.00341983	0
    CmRoll:	-5.54595	-5.5453	-0.000643135	0
    CmYaw:	19.2245	2.86377	16.3607	0
    Cs:	4.35628e-19	2.19642e-20	4.13664e-19	0
    Cs(f):	19.2245	2.86377	16.3607	0
    Cs(r):	-19.2245	-2.86377	-16.3607	0

    writing force and moment coefficient files.

forces forces write:
    Sum of forces
        Total    : (23.55 6.79379 -2.66822e-19)
        Pressure : (3.50812 6.793 -1.34531e-20)
        Viscous  : (20.0419 0.00078784 -2.53369e-19)
    Sum of moments
        Total    : (-3.39689 11.775 2.83534)
        Pressure : (-3.3965 1.75406 2.83325)
        Viscous  : (-0.00039392 10.021 0.00209464)
    writing force and moment files.

Time = 21

smoothSolver:  Solving for Ux, Initial residual = 0.000626905, Final residual = 6.08022e-05, No Iterations 4
smoothSolver:  Solving for Uy, Initial residual = 0.0124291, Final residual = 0.00100277, No Iterations 5
GAMG:  Solving for p, Initial residual = 0.00243694, Final residual = 2.12102e-05, No Iterations 27
GAMG:  Solving for p, Initial residual = 0.000127906, Final residual = 1.18095e-06, No Iterations 22
time step continuity errors : sum local = 3.33794e-07, global = -1.5509e-07, cumulative = -1.91831e-05
smoothSolver:  Solving for nuTilda, Initial residual = 0.00105791, Final residual = 9.39164e-05, No Iterations 11
ExecutionTime = 0.92 s  ClockTime = 0 s

forceCoeffs forceCoeffs write:
    Coefficient	Total	Pressure	Viscous	Internal
    Cd:	37.0245	5.52417	31.5003	0
    Cd(f):	13.1804	-2.56937	15.7497	0
    Cd(r):	23.8441	8.09354	15.7506	0
    Cl:	10.6638	10.6629	0.000872642	0
    Cl(f):	1.11548	1.11835	-0.00287021	0
    Cl(r):	9.54831	9.54456	0.00374285	0
    CmPitch:	-4.21641	-4.21311	-0.00330653	0
    CmRoll:	-5.33189	-5.33146	-0.000436321	0
    CmYaw:	18.5123	2.76209	15.7502	0
    Cs:	4.37244e-19	2.64592e-20	4.10785e-19	0
    Cs(f):	18.5123	2.76209	15.7502	0
    Cs(r):	-18.5123	-2.76209	-15.7502	0

    writing force and moment coefficient files.

forces forces write:
    Sum of forces
        Total    : (22.6775 6.53157 -2.67812e-19)
        Pressure : (3.38356 6.53103 -1.62062e-20)
        Viscous  : (19.294 0.000534493 -2.51606e-19)
    Sum of moments
        Total    : (-3.26578 11.3388 2.58255)
        Pressure : (-3.26552 1.69178 2.58053)
        Viscous  : (-0.000267247 9.64698 0.00202525)
    writing force and moment files.

Time = 22

smoothSolver:  Solving for Ux, Initial residual = 0.000611434, Final residual = 5.87705e-05, No Iterations 4
smoothSolver:  Solving for Uy, Initial residual = 0.01224, Final residual = 0.000987537, No Iterations 5
GAMG:  Solving for p, Initial residual = 0.00238792, Final residual = 2.25954e-05, No Iterations 27
GAMG:  Solving for p, Initial residual = 0.000128785, Final residual = 1.17901e-06, No Iterations 22
time step continuity errors : sum local = 3.28834e-07, global = -1.39163e-07, cumulative = -1.93222e-05
smoothSolver:  Solving for nuTilda, Initial residual = 0.000980471, Final residual = 8.61248e-05, No Iterations 11
ExecutionTime = 0.96 s  ClockTime = 1 s

forceCoeffs forceCoeffs write:
    Coefficient	Total	Pressure	Viscous	Internal
    Cd:	35.672	5.29723	30.3748	0
    Cd(f):	12.7308	-2.4564	15.1872	0
    Cd(r):	22.9412	7.75363	15.1876	0
    Cl:	10.2105	10.21	0.00042402	0
    Cl(f):	1.32101	1.32398	-0.00297273	0
    Cl(r):	8.88944	8.88605	0.00339675	0
    CmPitch:	-3.78422	-3.78103	-0.00318474	0
    CmRoll:	-5.10523	-5.10501	-0.00021201	0
    CmYaw:	17.836	2.64861	15.1874	0
    Cs:	4.39899e-19	3.3066e-20	4.06833e-19	0
    Cs(f):	17.836	2.64861	15.1874	0
    Cs(r):	-17.836	-2.64861	-15.1874	0

    writing force and moment coefficient files.

forces forces write:
    Sum of forces
        Total    : (21.8491 6.2539 -2.69438e-19)
        Pressure : (3.24455 6.25364 -2.02529e-20)
        Viscous  : (18.6045 0.000259712 -2.49185e-19)
    Sum of moments
        Total    : (-3.12695 10.9245 2.31783)
        Pressure : (-3.12682 1.62228 2.31588)
        Viscous  : (-0.000129856 9.30227 0.00195065)
    writing force and moment files.

Time = 23

smoothSolver:  Solving for Ux, Initial residual = 0.000597174, Final residual = 5.69712e-05, No Iterations 4
smoothSolver:  Solving for Uy, Initial residual = 0.0120621, Final residual = 0.000973158, No Iterations 5
GAMG:  Solving for p, Initial residual = 0.00234679, Final residual = 2.34604e-05, No Iterations 27
GAMG:  Solving for p, Initial residual = 0.000129559, Final residual = 1.20133e-06, No Iterations 22
time step continuity errors : sum local = 3.30183e-07, global = -1.27537e-07, cumulative = -1.94498e-05
smoothSolver:  Solving for nuTilda, Initial residual = 0.000913493, Final residual = 7.97038e-05, No Iterations 11
ExecutionTime = 0.99 s  ClockTime = 1 s

forceCoeffs forceCoeffs write:
    Coefficient	Total	Pressure	Viscous	Internal
    Cd:	34.3799	5.04584	29.3341	0
    Cd(f):	12.3237	-2.34335	14.6671	0
    Cd(r):	22.0562	7.38919	14.667	0
    Cl:	9.73248	9.73254	-5.75704e-05	0
    Cl(f):	1.53164	1.53473	-0.00308857	0
    Cl(r):	8.20084	8.19781	0.003031	0
    CmPitch:	-3.3346	-3.33154	-0.00305979	0
    CmRoll:	-4.86624	-4.86627	2.87852e-05	0
    CmYaw:	17.19	2.52292	14.667	0
    Cs:	4.42633e-19	3.83447e-20	4.04289e-19	0
    Cs(f):	17.19	2.52292	14.667	0
    Cs(r):	-17.19	-2.52292	-14.667	0

    writing force and moment coefficient files.

forces forces write:
    Sum of forces
        Total    : (21.0577 5.96115 -2.71113e-19)
        Pressure : (3.09058 5.96118 -2.34861e-20)
        Viscous  : (17.9671 -3.52619e-05 -2.47627e-19)
    Sum of moments
        Total    : (-2.98057 10.5289 2.04244)
        Pressure : (-2.98059 1.54529 2.04057)
        Viscous  : (1.76309e-05 8.98356 0.00187412)
    writing force and moment files.

Time = 24

smoothSolver:  Solving for Ux, Initial residual = 0.000583682, Final residual = 5.53849e-05, No Iterations 4
smoothSolver:  Solving for Uy, Initial residual = 0.0118943, Final residual = 0.00095953, No Iterations 5
GAMG:  Solving for p, Initial residual = 0.0023595, Final residual = 1.99812e-05, No Iterations 29
GAMG:  Solving for p, Initial residual = 0.000125936, Final residual = 1.24775e-06, No Iterations 22
time step continuity errors : sum local = 3.37437e-07, global = -1.62738e-07, cumulative = -1.96125e-05
smoothSolver:  Solving for nuTilda, Initial residual = 0.000853976, Final residual = 7.42616e-05, No Iterations 11
ExecutionTime = 1.03 s  ClockTime = 1 s

forceCoeffs forceCoeffs write:
    Coefficient	Total	Pressure	Viscous	Internal
    Cd:	33.1415	4.77234	28.3692	0
    Cd(f):	11.95	-2.23492	14.1849	0
    Cd(r):	21.1916	7.00726	14.1843	0
    Cl:	9.24162	9.24218	-0.000566696	0
    Cl(f):	1.74599	1.74921	-0.00321907	0
    Cl(r):	7.49563	7.49298	0.00265237	0
    CmPitch:	-2.87482	-2.87189	-0.00293572	0
    CmRoll:	-4.62081	-4.62109	0.000283348	0
    CmYaw:	16.5708	2.38617	14.1846	0
    Cs:	4.44256e-19	4.09034e-20	4.03352e-19	0
    Cs(f):	16.5708	2.38617	14.1846	0
    Cs(r):	-16.5708	-2.38617	-14.1846	0

    writing force and moment coefficient files.

forces forces write:
    Sum of forces
        Total    : (20.2992 5.66049 -2.72107e-19)
        Pressure : (2.92306 5.66084 -2.50533e-20)
        Viscous  : (17.3761 -0.000347101 -2.47053e-19)
    Sum of moments
        Total    : (-2.83025 10.1496 1.76083)
        Pressure : (-2.83042 1.46153 1.75903)
        Viscous  : (0.000173551 8.68807 0.00179813)
    writing force and moment files.

Time = 25

smoothSolver:  Solving for Ux, Initial residual = 0.000570422, Final residual = 5.39225e-05, No Iterations 4
smoothSolver:  Solving for Uy, Initial residual = 0.011731, Final residual = 0.000946605, No Iterations 5
GAMG:  Solving for p, Initial residual = 0.00236531, Final residual = 2.29151e-05, No Iterations 27
GAMG:  Solving for p, Initial residual = 0.00012602, Final residual = 1.20605e-06, No Iterations 22
time step continuity errors : sum local = 3.20921e-07, global = -1.2293e-07, cumulative = -1.97354e-05
smoothSolver:  Solving for nuTilda, Initial residual = 0.000802509, Final residual = 6.9843e-05, No Iterations 11
ExecutionTime = 1.06 s  ClockTime = 1 s

forceCoeffs forceCoeffs write:
    Coefficient	Total	Pressure	Viscous	Internal
    Cd:	31.9628	4.49047	27.4723	0
    Cd(f):	11.6114	-2.12531	13.7367	0
    Cd(r):	20.3514	6.61578	13.7356	0
    Cl:	8.74	8.74109	-0.00109423	0
    Cl(f):	1.96156	1.96492	-0.00336424	0
    Cl(r):	6.77844	6.77617	0.00227002	0
    CmPitch:	-2.40844	-2.40562	-0.00281713	0
    CmRoll:	-4.37	-4.37055	0.000547113	0
    CmYaw:	15.9814	2.24523	13.7362	0
    Cs:	4.44627e-19	4.06216e-20	4.04006e-19	0
    Cs(f):	15.9814	2.24523	13.7362	0
    Cs(r):	-15.9814	-2.24523	-13.7362	0

    writing force and moment coefficient files.

forces forces write:
    Sum of forces
        Total    : (19.5772 5.35325 -2.72334e-19)
        Pressure : (2.75041 5.35392 -2.48807e-20)
        Viscous  : (16.8268 -0.000670214 -2.47454e-19)
    Sum of moments
        Total    : (-2.67662 9.78861 1.47517)
        Pressure : (-2.67696 1.37521 1.47344)
        Viscous  : (0.000335107 8.4134 0.00172549)
    writing force and moment files.

Time = 26

smoothSolver:  Solving for Ux, Initial residual = 0.000557233, Final residual = 5.25432e-05, No Iterations 4
smoothSolver:  Solving for Uy, Initial residual = 0.0115689, Final residual = 0.000933927, No Iterations 5
GAMG:  Solving for p, Initial residual = 0.00233078, Final residual = 2.28877e-05, No Iterations 26
GAMG:  Solving for p, Initial residual = 0.000124697, Final residual = 1.24504e-06, No Iterations 22
time step continuity errors : sum local = 3.2564e-07, global = -1.2148e-07, cumulative = -1.98569e-05
smoothSolver:  Solving for nuTilda, Initial residual = 0.000757442, Final residual = 6.63551e-05, No Iterations 11
ExecutionTime = 1.1 s  ClockTime = 1 s

forceCoeffs forceCoeffs write:
    Coefficient	Total	Pressure	Viscous	Internal
    Cd:	30.8338	4.19708	26.6368	0
    Cd(f):	11.3029	-2.01634	13.3192	0
    Cd(r):	19.531	6.21342	13.3176	0
    Cl:	8.22813	8.22976	-0.00162548	0
    Cl(f):	2.1734	2.17692	-0.00352551	0
    Cl(r):	6.05474	6.05284	0.00190004	0
    CmPitch:	-1.94067	-1.93796	-0.00271277	0
    CmRoll:	-4.11407	-4.11488	0.000812739	0
    CmYaw:	15.4169	2.09854	13.3184	0
    Cs:	4.4388e-19	3.84546e-20	4.05426e-19	0
    Cs(f):	15.4169	2.09854	13.3184	0
    Cs(r):	-15.4169	-2.09854	-13.3184	0

    writing force and moment coefficient files.

forces forces write:
    Sum of forces
        Total    : (18.8857 5.03973 -2.71877e-19)
        Pressure : (2.57071 5.04073 -2.35534e-20)
        Viscous  : (16.315 -0.000995605 -2.48323e-19)
    Sum of moments
        Total    : (-2.51987 9.44286 1.18866)
        Pressure : (-2.52036 1.28536 1.187)
        Viscous  : (0.000497802 8.15751 0.00166157)
    writing force and moment files.

Time = 27

smoothSolver:  Solving for Ux, Initial residual = 0.000542877, Final residual = 5.12327e-05, No Iterations 4
smoothSolver:  Solving for Uy, Initial residual = 0.0114148, Final residual = 0.000921697, No Iterations 5
GAMG:  Solving for p, Initial residual = 0.00228435, Final residual = 2.1046e-05, No Iterations 27
GAMG:  Solving for p, Initial residual = 0.000121481, Final residual = 9.83113e-07, No Iterations 24
time step continuity errors : sum local = 2.52538e-07, global = -1.04046e-07, cumulative = -1.9961e-05
smoothSolver:  Solving for nuTilda, Initial residual = 0.000719685, Final residual = 6.34897e-05, No Iterations 11
ExecutionTime = 1.14 s  ClockTime = 1 s

forceCoeffs forceCoeffs write:
    Coefficient	Total	Pressure	Viscous	Internal
    Cd:	29.751	3.89425	25.8567	0
    Cd(f):	11.0206	-1.90887	12.9294	0
    Cd(r):	18.7304	5.80312	12.9273	0
    Cl:	7.70984	7.71199	-0.00215212	0
    Cl(f):	2.37793	2.38163	-0.00370153	0
    Cl(r):	5.33191	5.33036	0.00154941	0
    CmPitch:	-1.47699	-1.47437	-0.00262547	0
    CmRoll:	-3.85492	-3.856	0.00107606	0
    CmYaw:	14.8755	1.94712	12.9284	0
    Cs:	4.42587e-19	3.58604e-20	4.06727e-19	0
    Cs(f):	14.8755	1.94712	12.9284	0
    Cs(r):	-14.8755	-1.94712	-12.9284	0

    writing force and moment coefficient files.

forces forces write:
    Sum of forces
        Total    : (18.2225 4.72228 -2.71085e-19)
        Pressure : (2.38523 4.72359 -2.19645e-20)
        Viscous  : (15.8373 -0.00131817 -2.4912e-19)
    Sum of moments
        Total    : (-2.36114 9.11124 0.904658)
        Pressure : (-2.3618 1.19261 0.90305)
        Viscous  : (0.000659087 7.91863 0.0016081)
    writing force and moment files.

Time = 28

smoothSolver:  Solving for Ux, Initial residual = 0.000528692, Final residual = 4.99508e-05, No Iterations 4
smoothSolver:  Solving for Uy, Initial residual = 0.0112682, Final residual = 0.000909869, No Iterations 5
GAMG:  Solving for p, Initial residual = 0.00228159, Final residual = 1.99172e-05, No Iterations 29
GAMG:  Solving for p, Initial residual = 0.000118307, Final residual = 1.00537e-06, No Iterations 24
time step continuity errors : sum local = 2.53613e-07, global = -1.10509e-07, cumulative = -2.00715e-05
smoothSolver:  Solving for nuTilda, Initial residual = 0.000689084, Final residual = 6.13103e-05, No Iterations 11
ExecutionTime = 1.17 s  ClockTime = 1 s

forceCoeffs forceCoeffs write:
    Coefficient	Total	Pressure	Viscous	Internal
    Cd:	28.7188	3.59147	25.1273	0
    Cd(f):	10.7647	-1.8003	12.565	0
    Cd(r):	17.9541	5.39177	12.5623	0
    Cl:	7.18941	7.19208	-0.0026697	0
    Cl(f):	2.57172	2.57561	-0.00389069	0
    Cl(r):	4.61769	4.61646	0.00122099	0
    CmPitch:	-1.02298	-1.02043	-0.00255584	0
    CmRoll:	-3.5947	-3.59604	0.00133485	0
    CmYaw:	14.3594	1.79573	12.5637	0
    Cs:	4.41232e-19	3.35097e-20	4.07722e-19	0
    Cs(f):	14.3594	1.79573	12.5637	0
    Cs(r):	-14.3594	-1.79573	-12.5637	0

    writing force and moment coefficient files.

forces forces write:
    Sum of forces
        Total    : (17.5903 4.40351 -2.70255e-19)
        Pressure : (2.19977 4.40515 -2.05247e-20)
        Viscous  : (15.3905 -0.00163519 -2.4973e-19)
    Sum of moments
        Total    : (-2.20176 8.79513 0.626576)
        Pressure : (-2.20257 1.09989 0.625011)
        Viscous  : (0.000817595 7.69524 0.00156545)
    writing force and moment files.

Time = 29

smoothSolver:  Solving for Ux, Initial residual = 0.000515103, Final residual = 4.87077e-05, No Iterations 4
smoothSolver:  Solving for Uy, Initial residual = 0.0111241, Final residual = 0.000898058, No Iterations 5
GAMG:  Solving for p, Initial residual = 0.00225839, Final residual = 1.92583e-05, No Iterations 29
GAMG:  Solving for p, Initial residual = 0.000115497, Final residual = 1.00379e-06, No Iterations 24
time step continuity errors : sum local = 2.48689e-07, global = -1.06764e-07, cumulative = -2.01782e-05
smoothSolver:  Solving for nuTilda, Initial residual = 0.000664944, Final residual = 5.95561e-05, No Iterations 11
ExecutionTime = 1.21 s  ClockTime = 1 s

forceCoeffs forceCoeffs write:
    Coefficient	Total	Pressure	Viscous	Internal
    Cd:	27.7352	3.29107	24.4442	0
    Cd(f):	10.5321	-1.69158	12.2237	0
    Cd(r):	17.2031	4.98265	12.2205	0
    Cl:	6.67106	6.67423	-0.00316751	0
    Cl(f):	2.75275	2.75684	-0.00409676	0
    Cl(r):	3.91831	3.91738	0.000929248	0
    CmPitch:	-0.582784	-0.580271	-0.00251301	0
    CmRoll:	-3.33553	-3.33711	0.00158376	0
    CmYaw:	13.8676	1.64553	12.2221	0
    Cs:	4.40201e-19	3.16267e-20	4.08575e-19	0
    Cs(f):	13.8676	1.64553	12.2221	0
    Cs(r):	-13.8676	-1.64553	-12.2221	0

    writing force and moment coefficient files.

forces forces write:
    Sum of forces
        Total    : (16.9878 4.08602 -2.69623e-19)
        Pressure : (2.01578 4.08796 -1.93714e-20)
        Viscous  : (14.972 -0.0019401 -2.50252e-19)
    Sum of moments
        Total    : (-2.04301 8.49391 0.356955)
        Pressure : (-2.04398 1.00789 0.355416)
        Viscous  : (0.000970051 7.48602 0.00153922)
    writing force and moment files.

Time = 30

smoothSolver:  Solving for Ux, Initial residual = 0.00050083, Final residual = 4.74846e-05, No Iterations 4
smoothSolver:  Solving for Uy, Initial residual = 0.0109833, Final residual = 0.000886485, No Iterations 5
GAMG:  Solving for p, Initial residual = 0.00222009, Final residual = 1.88364e-05, No Iterations 29
GAMG:  Solving for p, Initial residual = 0.000112955, Final residual = 9.88822e-07, No Iterations 24
time step continuity errors : sum local = 2.40677e-07, global = -9.9072e-08, cumulative = -2.02773e-05
smoothSolver:  Solving for nuTilda, Initial residual = 0.000644027, Final residual = 5.81023e-05, No Iterations 11
ExecutionTime = 1.25 s  ClockTime = 1 s

forceCoeffs forceCoeffs write:
    Coefficient	Total	Pressure	Viscous	Internal
    Cd:	26.7999	2.99634	23.8035	0
    Cd(f):	10.3186	-1.58502	11.9036	0
    Cd(r):	16.4813	4.58136	11.8999	0
    Cl:	6.16272	6.16638	-0.00365587	0
    Cl(f):	2.91747	2.92179	-0.00431527	0
    Cl(r):	3.24525	3.24459	0.000659401	0
    CmPitch:	-0.163887	-0.1614	-0.00248733	0
    CmRoll:	-3.08136	-3.08319	0.00182793	0
    CmYaw:	13.3999	1.49817	11.9018	0
    Cs:	4.39569e-19	3.02034e-20	4.09366e-19	0
    Cs(f):	13.3999	1.49817	11.9018	0
    Cs(r):	-13.3999	-1.49817	-11.9018	0

    writing force and moment coefficient files.

forces forces write:
    Sum of forces
        Total    : (16.4149 3.77467 -2.69236e-19)
        Pressure : (1.83526 3.77691 -1.84996e-20)
        Viscous  : (14.5797 -0.00223922 -2.50737e-19)
    Sum of moments
        Total    : (-1.88733 8.20746 0.100381)
        Pressure : (-1.88845 0.917631 0.0988573)
        Viscous  : (0.00111961 7.28983 0.00152349)
    writing force and moment files.

Time = 31

smoothSolver:  Solving for Ux, Initial residual = 0.000486685, Final residual = 4.62794e-05, No Iterations 4
smoothSolver:  Solving for Uy, Initial residual = 0.0108446, Final residual = 0.000875123, No Iterations 5
GAMG:  Solving for p, Initial residual = 0.00217117, Final residual = 1.83727e-05, No Iterations 29
GAMG:  Solving for p, Initial residual = 0.000109998, Final residual = 9.72138e-07, No Iterations 24
time step continuity errors : sum local = 2.32639e-07, global = -9.13356e-08, cumulative = -2.03686e-05
smoothSolver:  Solving for nuTilda, Initial residual = 0.000622713, Final residual = 5.65655e-05, No Iterations 11
ExecutionTime = 1.28 s  ClockTime = 1 s

forceCoeffs forceCoeffs write:
    Coefficient	Total	Pressure	Viscous	Internal
    Cd:	25.9141	2.71189	23.2022	0
    Cd(f):	10.1199	-1.48326	11.6031	0
    Cd(r):	15.7942	4.19515	11.599	0
    Cl:	5.6743	5.67841	-0.00411043	0
    Cl(f):	3.06342	3.06798	-0.00456135	0
    Cl(r):	2.61088	2.61043	0.000450924	0
    CmPitch:	0.22627	0.228776	-0.00250614	0
    CmRoll:	-2.83715	-2.83921	0.00205522	0
    CmYaw:	12.957	1.35595	11.6011	0
    Cs:	4.39255e-19	2.91582e-20	4.10097e-19	0
    Cs(f):	12.957	1.35595	11.6011	0
    Cs(r):	-12.957	-1.35595	-11.6011	0

    writing force and moment coefficient files.

forces forces write:
    Sum of forces
        Total    : (15.8724 3.47551 -2.69044e-19)
        Pressure : (1.66103 3.47803 -1.78594e-20)
        Viscous  : (14.2113 -0.00251764 -2.51185e-19)
    Sum of moments
        Total    : (-1.73775 7.93619 -0.13859)
        Pressure : (-1.73901 0.830516 -0.140125)
        Viscous  : (0.00125882 7.10567 0.00153501)
    writing force and moment files.

Time = 32

smoothSolver:  Solving for Ux, Initial residual = 0.000472708, Final residual = 4.50841e-05, No Iterations 4
smoothSolver:  Solving for Uy, Initial residual = 0.0107082, Final residual = 0.00086393, No Iterations 5
GAMG:  Solving for p, Initial residual = 0.002146, Final residual = 2.12644e-05, No Iterations 27
GAMG:  Solving for p, Initial residual = 0.000109239, Final residual = 1.04347e-06, No Iterations 26
time step continuity errors : sum local = 2.45802e-07, global = -8.28764e-08, cumulative = -2.04515e-05
smoothSolver:  Solving for nuTilda, Initial residual = 0.000604488, Final residual = 5.50638e-05, No Iterations 11
ExecutionTime = 1.32 s  ClockTime = 1 s

forceCoeffs forceCoeffs write:
    Coefficient	Total	Pressure	Viscous	Internal
    Cd:	25.0784	2.44102	22.6374	0
    Cd(f):	9.93705	-1.38392	11.321	0
    Cd(r):	15.1414	3.82494	11.3164	0
    Cl:	5.2043	5.20886	-0.00455676	0
    Cl(f):	3.18971	3.19454	-0.00482813	0
    Cl(r):	2.01459	2.01432	0.000271363	0
    CmPitch:	0.587564	0.590113	-0.00254974	0
    CmRoll:	-2.60215	-2.60443	0.00227838	0
    CmYaw:	12.5392	1.22051	11.3187	0
    Cs:	4.39196e-19	2.83988e-20	4.10797e-19	0
    Cs(f):	12.5392	1.22051	11.3187	0
    Cs(r):	-12.5392	-1.22051	-11.3187	0

    writing force and moment coefficient files.

forces forces write:
    Sum of forces
        Total    : (15.3605 3.18764 -2.69008e-19)
        Pressure : (1.49512 3.19043 -1.73942e-20)
        Viscous  : (13.8654 -0.00279102 -2.51613e-19)
    Sum of moments
        Total    : (-1.59382 7.68026 -0.359883)
        Pressure : (-1.59521 0.747562 -0.361444)
        Viscous  : (0.00139551 6.9327 0.00156172)
    writing force and moment files.

Time = 33

smoothSolver:  Solving for Ux, Initial residual = 0.000458731, Final residual = 4.39007e-05, No Iterations 4
smoothSolver:  Solving for Uy, Initial residual = 0.0105742, Final residual = 0.000852847, No Iterations 5
GAMG:  Solving for p, Initial residual = 0.00214377, Final residual = 2.01803e-05, No Iterations 27
GAMG:  Solving for p, Initial residual = 0.000105979, Final residual = 1.0551e-06, No Iterations 26
time step continuity errors : sum local = 2.44836e-07, global = -8.18115e-08, cumulative = -2.05333e-05
smoothSolver:  Solving for nuTilda, Initial residual = 0.000588605, Final residual = 5.3575e-05, No Iterations 11
ExecutionTime = 1.36 s  ClockTime = 1 s

forceCoeffs forceCoeffs write:
    Coefficient	Total	Pressure	Viscous	Internal
    Cd:	24.292	2.18526	22.1068	0
    Cd(f):	9.76431	-1.29157	11.0559	0
    Cd(r):	14.5277	3.47683	11.0509	0
    Cl:	4.76341	4.76841	-0.00499825	0
    Cl(f):	3.29344	3.29856	-0.00512298	0
    Cl(r):	1.46997	1.46985	0.000124726	0
    CmPitch:	0.911733	0.914357	-0.00262385	0
    CmRoll:	-2.3817	-2.3842	0.00249913	0
    CmYaw:	12.146	1.09263	11.0534	0
    Cs:	4.39317e-19	2.78313e-20	4.11486e-19	0
    Cs(f):	12.146	1.09263	11.0534	0
    Cs(r):	-12.146	-1.09263	-11.0534	0

    writing force and moment coefficient files.

forces forces write:
    Sum of forces
        Total    : (14.8789 2.91759 -2.69082e-19)
        Pressure : (1.33847 2.92065 -1.70466e-20)
        Viscous  : (13.5404 -0.00306143 -2.52035e-19)
    Sum of moments
        Total    : (-1.45879 7.43943 -0.558436)
        Pressure : (-1.46032 0.669237 -0.560043)
        Viscous  : (0.00153072 6.7702 0.00160711)
    writing force and moment files.

Time = 34

smoothSolver:  Solving for Ux, Initial residual = 0.000444755, Final residual = 4.27226e-05, No Iterations 4
smoothSolver:  Solving for Uy, Initial residual = 0.0104411, Final residual = 0.000841884, No Iterations 5
GAMG:  Solving for p, Initial residual = 0.00209484, Final residual = 1.86181e-05, No Iterations 27
GAMG:  Solving for p, Initial residual = 0.000102055, Final residual = 1.01609e-06, No Iterations 26
time step continuity errors : sum local = 2.32562e-07, global = -7.78313e-08, cumulative = -2.06112e-05
smoothSolver:  Solving for nuTilda, Initial residual = 0.000570182, Final residual = 5.18583e-05, No Iterations 11
ExecutionTime = 1.41 s  ClockTime = 1 s

forceCoeffs forceCoeffs write:
    Coefficient	Total	Pressure	Viscous	Internal
    Cd:	23.5571	1.94871	21.6083	0
    Cd(f):	9.60157	-1.20532	10.8069	0
    Cd(r):	13.9555	3.15403	10.8014	0
    Cl:	4.35391	4.35935	-0.00544154	0
    Cl(f):	3.37403	3.37948	-0.00545444	0
    Cl(r):	0.979884	0.979872	1.28944e-05	0
    CmPitch:	1.19707	1.1998	-0.00273367	0
    CmRoll:	-2.17696	-2.17968	0.00272077	0
    CmYaw:	11.7785	0.974356	10.8042	0
    Cs:	4.39485e-19	2.736e-20	4.12125e-19	0
    Cs(f):	11.7785	0.974356	10.8042	0
    Cs(r):	-11.7785	-0.974356	-10.8042	0

    writing force and moment coefficient files.

forces forces write:
    Sum of forces
        Total    : (14.4287 2.66677 -2.69185e-19)
        Pressure : (1.19359 2.6701 -1.6758e-20)
        Viscous  : (13.2351 -0.00333295 -2.52427e-19)
    Sum of moments
        Total    : (-1.33339 7.21435 -0.733206)
        Pressure : (-1.33505 0.596793 -0.73488)
        Viscous  : (0.00166647 6.61755 0.00167437)
    writing force and moment files.

Time = 35

smoothSolver:  Solving for Ux, Initial residual = 0.000431262, Final residual = 4.15583e-05, No Iterations 4
smoothSolver:  Solving for Uy, Initial residual = 0.0103081, Final residual = 0.000830806, No Iterations 5
GAMG:  Solving for p, Initial residual = 0.00207872, Final residual = 1.98324e-05, No Iterations 25
GAMG:  Solving for p, Initial residual = 9.95715e-05, Final residual = 8.73367e-07, No Iterations 30
time step continuity errors : sum local = 1.97537e-07, global = -6.50296e-08, cumulative = -2.06762e-05
smoothSolver:  Solving for nuTilda, Initial residual = 0.000549408, Final residual = 4.99384e-05, No Iterations 11
ExecutionTime = 1.44 s  ClockTime = 1 s

forceCoeffs forceCoeffs write:
    Coefficient	Total	Pressure	Viscous	Internal
    Cd:	22.8734	1.73294	21.1405	0
    Cd(f):	9.44712	-1.12606	10.5732	0
    Cd(r):	13.4263	2.85901	10.5673	0
    Cl:	3.97917	3.98507	-0.00590131	0
    Cl(f):	3.43079	3.43662	-0.00582745	0
    Cl(r):	0.548379	0.548453	-7.38647e-05	0
    CmPitch:	1.44121	1.44408	-0.00287679	0
    CmRoll:	-1.98959	-1.99254	0.00295065	0
    CmYaw:	11.4367	0.866472	10.5702	0
    Cs:	4.39673e-19	2.69397e-20	4.12733e-19	0
    Cs(f):	11.4367	0.866472	10.5702	0
    Cs(r):	-11.4367	-0.866472	-10.5702	0

    writing force and moment coefficient files.

forces forces write:
    Sum of forces
        Total    : (14.01 2.43724 -2.693e-19)
        Pressure : (1.06143 2.44086 -1.65006e-20)
        Viscous  : (12.9485 -0.00361455 -2.52799e-19)
    Sum of moments
        Total    : (-1.21862 7.00498 -0.882739)
        Pressure : (-1.22043 0.530714 -0.884501)
        Viscous  : (0.00180728 6.47427 0.00176203)
    writing force and moment files.

Time = 36

smoothSolver:  Solving for Ux, Initial residual = 0.000418118, Final residual = 4.04077e-05, No Iterations 4
smoothSolver:  Solving for Uy, Initial residual = 0.0101725, Final residual = 0.000819742, No Iterations 5
GAMG:  Solving for p, Initial residual = 0.00207141, Final residual = 2.02287e-05, No Iterations 23
GAMG:  Solving for p, Initial residual = 9.61997e-05, Final residual = 8.2923e-07, No Iterations 32
time step continuity errors : sum local = 1.85626e-07, global = -6.08942e-08, cumulative = -2.07371e-05
smoothSolver:  Solving for nuTilda, Initial residual = 0.000527655, Final residual = 4.78614e-05, No Iterations 11
ExecutionTime = 1.49 s  ClockTime = 1 s

forceCoeffs forceCoeffs write:
    Coefficient	Total	Pressure	Viscous	Internal
    Cd:	22.2409	1.53904	20.7018	0
    Cd(f):	9.29794	-1.05617	10.3541	0
    Cd(r):	12.9429	2.59521	10.3477	0
    Cl:	3.64499	3.65138	-0.00639299	0
    Cl(f):	3.46284	3.46909	-0.00624353	0
    Cl(r):	0.182145	0.182295	-0.000149456	0
    CmPitch:	1.64035	1.6434	-0.00304704	0
    CmRoll:	-1.82249	-1.82569	0.0031965	0
    CmYaw:	11.1204	0.76952	10.3509	0
    Cs:	4.39827e-19	2.66023e-20	4.13225e-19	0
    Cs(f):	11.1204	0.76952	10.3509	0
    Cs(r):	-11.1204	-0.76952	-10.3509	0

    writing force and moment coefficient files.

forces forces write:
    Sum of forces
        Total    : (13.6225 2.23256 -2.69394e-19)
        Pressure : (0.942662 2.23647 -1.62939e-20)
        Viscous  : (12.6799 -0.00391571 -2.531e-19)
    Sum of moments
        Total    : (-1.11628 6.81126 -1.00471)
        Pressure : (-1.11824 0.471331 -1.00658)
        Viscous  : (0.00195785 6.33993 0.00186631)
    writing force and moment files.

Time = 37

smoothSolver:  Solving for Ux, Initial residual = 0.000405377, Final residual = 3.92737e-05, No Iterations 4
smoothSolver:  Solving for Uy, Initial residual = 0.0100354, Final residual = 0.000808486, No Iterations 5
GAMG:  Solving for p, Initial residual = 0.00201383, Final residual = 1.71322e-05, No Iterations 23
GAMG:  Solving for p, Initial residual = 9.04152e-05, Final residual = 8.854e-07, No Iterations 30
time step continuity errors : sum local = 1.96406e-07, global = -6.4907e-08, cumulative = -2.0802e-05
smoothSolver:  Solving for nuTilda, Initial residual = 0.000505939, Final residual = 4.5719e-05, No Iterations 11
ExecutionTime = 1.53 s  ClockTime = 1 s

forceCoeffs forceCoeffs write:
    Coefficient	Total	Pressure	Viscous	Internal
    Cd:	21.6589	1.36758	20.2913	0
    Cd(f):	9.15559	-0.993519	10.1491	0
    Cd(r):	12.5033	2.3611	10.1422	0
    Cl:	3.3477	3.35462	-0.00691818	0
    Cl(f):	3.47077	3.47748	-0.00670429	0
    Cl(r):	-0.123071	-0.122857	-0.000213892	0
    CmPitch:	1.79692	1.80017	-0.0032452	0
    CmRoll:	-1.67385	-1.67731	0.00345909	0
    CmYaw:	10.8294	0.683791	10.1457	0
    Cs:	4.39917e-19	2.63813e-20	4.13535e-19	0
    Cs(f):	10.8294	0.683791	10.1457	0
    Cs(r):	-10.8294	-0.683791	-10.1457	0

    writing force and moment coefficient files.

forces forces write:
    Sum of forces
        Total    : (13.2661 2.05047 -2.69449e-19)
        Pressure : (0.837644 2.0547 -1.61586e-20)
        Viscous  : (12.4284 -0.00423739 -2.5329e-19)
    Sum of moments
        Total    : (-1.02523 6.63303 -1.10061)
        Pressure : (-1.02735 0.418822 -1.1026)
        Viscous  : (0.00211869 6.21421 0.00198768)
    writing force and moment files.

Time = 38

smoothSolver:  Solving for Ux, Initial residual = 0.000393091, Final residual = 3.81645e-05, No Iterations 4
smoothSolver:  Solving for Uy, Initial residual = 0.00989482, Final residual = 0.000797098, No Iterations 5
GAMG:  Solving for p, Initial residual = 0.00196124, Final residual = 1.79845e-05, No Iterations 21
GAMG:  Solving for p, Initial residual = 8.71696e-05, Final residual = 8.63449e-07, No Iterations 32
time step continuity errors : sum local = 1.90172e-07, global = -6.27734e-08, cumulative = -2.08648e-05
smoothSolver:  Solving for nuTilda, Initial residual = 0.000484306, Final residual = 4.35525e-05, No Iterations 11
ExecutionTime = 1.57 s  ClockTime = 1 s

forceCoeffs forceCoeffs write:
    Coefficient	Total	Pressure	Viscous	Internal
    Cd:	21.1271	1.21908	19.908	0
    Cd(f):	9.01879	-0.938963	9.95775	0
    Cd(r):	12.1083	2.15805	9.95028	0
    Cl:	3.08954	3.09701	-0.00747085	0
    Cl(f):	3.45569	3.4629	-0.00720535	0
    Cl(r):	-0.366153	-0.365888	-0.000265507	0
    CmPitch:	1.91092	1.91439	-0.00346992	0
    CmRoll:	-1.54477	-1.5485	0.00373543	0
    CmYaw:	10.5636	0.609542	9.95402	0
    Cs:	4.39959e-19	2.62337e-20	4.13725e-19	0
    Cs(f):	10.5636	0.609542	9.95402	0
    Cs(r):	-10.5636	-0.609542	-9.95402	0

    writing force and moment coefficient files.

forces forces write:
    Sum of forces
        Total    : (12.9404 1.89234 -2.69475e-19)
        Pressure : (0.746688 1.89692 -1.60682e-20)
        Viscous  : (12.1937 -0.0045759 -2.53407e-19)
    Sum of moments
        Total    : (-0.946171 6.47018 -1.17044)
        Pressure : (-0.948459 0.373344 -1.17257)
        Viscous  : (0.00228795 6.09683 0.00212533)
    writing force and moment files.

Time = 39

smoothSolver:  Solving for Ux, Initial residual = 0.000381875, Final residual = 3.70762e-05, No Iterations 4
smoothSolver:  Solving for Uy, Initial residual = 0.00974851, Final residual = 0.000785462, No Iterations 5
GAMG:  Solving for p, Initial residual = 0.00189618, Final residual = 1.82849e-05, No Iterations 19
GAMG:  Solving for p, Initial residual = 8.34926e-05, Final residual = 7.98815e-07, No Iterations 34
time step continuity errors : sum local = 1.74974e-07, global = -5.81961e-08, cumulative = -2.0923e-05
smoothSolver:  Solving for nuTilda, Initial residual = 0.000462816, Final residual = 4.13394e-05, No Iterations 11
ExecutionTime = 1.6 s  ClockTime = 1 s

forceCoeffs forceCoeffs write:
    Coefficient	Total	Pressure	Viscous	Internal
    Cd:	20.6449	1.09366	19.5513	0
    Cd(f):	8.88556	-0.89409	9.77965	0
    Cd(r):	11.7594	1.98775	9.77161	0
    Cl:	2.87379	2.88184	-0.00804292	0
    Cl(f):	3.41794	3.42567	-0.00773354	0
    Cl(r):	-0.544148	-0.543838	-0.000309381	0
    CmPitch:	1.98104	1.98476	-0.00371208	0
    CmRoll:	-1.4369	-1.44092	0.00402146	0
    CmYaw:	10.3225	0.546828	9.77563	0
    Cs:	4.39937e-19	2.61704e-20	4.13767e-19	0
    Cs(f):	10.3225	0.546828	9.77563	0
    Cs(r):	-10.3225	-0.546828	-9.77563	0

    writing force and moment coefficient files.

forces forces write:
    Sum of forces
        Total    : (12.645 1.7602 -2.69461e-19)
        Pressure : (0.669864 1.76512 -1.60294e-20)
        Viscous  : (11.9751 -0.00492629 -2.53432e-19)
    Sum of moments
        Total    : (-0.880099 6.3225 -1.21339)
        Pressure : (-0.882562 0.334932 -1.21566)
        Viscous  : (0.00246314 5.98757 0.00227365)
    writing force and moment files.

Time = 40

smoothSolver:  Solving for Ux, Initial residual = 0.000371553, Final residual = 3.60183e-05, No Iterations 4
smoothSolver:  Solving for Uy, Initial residual = 0.00959609, Final residual = 0.000773515, No Iterations 5
GAMG:  Solving for p, Initial residual = 0.00183471, Final residual = 1.80515e-05, No Iterations 17
GAMG:  Solving for p, Initial residual = 7.95972e-05, Final residual = 6.71443e-07, No Iterations 36
time step continuity errors : sum local = 1.46508e-07, global = -4.90025e-08, cumulative = -2.0972e-05
smoothSolver:  Solving for nuTilda, Initial residual = 0.000441542, Final residual = 3.91414e-05, No Iterations 11
ExecutionTime = 1.65 s  ClockTime = 1 s

forceCoeffs forceCoeffs write:
    Coefficient	Total	Pressure	Viscous	Internal
    Cd:	20.2111	0.990797	19.2203	0
    Cd(f):	8.75862	-0.85584	9.61446	0
    Cd(r):	11.4525	1.84664	9.60584	0
    Cl:	2.69386	2.70248	-0.00861955	0
    Cl(f):	3.3593	3.36757	-0.00827147	0
    Cl(r):	-0.665441	-0.665093	-0.000348076	0
    CmPitch:	2.01237	2.01633	-0.0039617	0
    CmRoll:	-1.34693	-1.35124	0.00430977	0
    CmYaw:	10.1055	0.495398	9.61015	0
    Cs:	4.39855e-19	2.61815e-20	4.13673e-19	0
    Cs(f):	10.1055	0.495398	9.61015	0
    Cs(r):	-10.1055	-0.495398	-9.61015	0

    writing force and moment coefficient files.

forces forces write:
    Sum of forces
        Total    : (12.3793 1.64999 -2.69411e-19)
        Pressure : (0.606863 1.65527 -1.60362e-20)
        Viscous  : (11.7724 -0.00527947 -2.53375e-19)
    Sum of moments
        Total    : (-0.824993 6.18965 -1.23258)
        Pressure : (-0.827633 0.303431 -1.235)
        Viscous  : (0.00263974 5.88622 0.00242654)
    writing force and moment files.

Time = 41

smoothSolver:  Solving for Ux, Initial residual = 0.000362227, Final residual = 3.49999e-05, No Iterations 4
smoothSolver:  Solving for Uy, Initial residual = 0.00943729, Final residual = 0.000761309, No Iterations 5
GAMG:  Solving for p, Initial residual = 0.00176946, Final residual = 1.44154e-05, No Iterations 17
GAMG:  Solving for p, Initial residual = 7.39267e-05, Final residual = 6.32801e-07, No Iterations 34
time step continuity errors : sum local = 1.37733e-07, global = -4.70503e-08, cumulative = -2.1019e-05
smoothSolver:  Solving for nuTilda, Initial residual = 0.000420564, Final residual = 3.69653e-05, No Iterations 11
ExecutionTime = 1.69 s  ClockTime = 1 s

forceCoeffs forceCoeffs write:
    Coefficient	Total	Pressure	Viscous	Internal
    Cd:	19.8245	0.91002	18.9145	0
    Cd(f):	8.63866	-0.823173	9.46184	0
    Cd(r):	11.1858	1.73319	9.45265	0
    Cl:	2.54718	2.55637	-0.00918722	0
    Cl(f):	3.28314	3.29194	-0.00879707	0
    Cl(r):	-0.735961	-0.735571	-0.000390151	0
    CmPitch:	2.00955	2.01375	-0.00420346	0
    CmRoll:	-1.27359	-1.27818	0.00459361	0
    CmYaw:	9.91225	0.45501	9.45724	0
    Cs:	4.39751e-19	2.62253e-20	4.13526e-19	0
    Cs(f):	9.91225	0.45501	9.45724	0
    Cs(r):	-9.91225	-0.45501	-9.45724	0

    writing force and moment coefficient files.

forces forces write:
    Sum of forces
        Total    : (12.1425 1.56015 -2.69348e-19)
        Pressure : (0.557387 1.56577 -1.6063e-20)
        Viscous  : (11.5851 -0.00562717 -2.53285e-19)
    Sum of moments
        Total    : (-0.780074 6.07126 -1.23085)
        Pressure : (-0.782887 0.278694 -1.23342)
        Viscous  : (0.00281358 5.79256 0.00257462)
    writing force and moment files.

Time = 42

smoothSolver:  Solving for Ux, Initial residual = 0.000354146, Final residual = 3.40257e-05, No Iterations 4
smoothSolver:  Solving for Uy, Initial residual = 0.00927014, Final residual = 0.000748742, No Iterations 5
GAMG:  Solving for p, Initial residual = 0.00170039, Final residual = 1.6932e-05, No Iterations 16
GAMG:  Solving for p, Initial residual = 7.29342e-05, Final residual = 6.61991e-07, No Iterations 31
time step continuity errors : sum local = 1.43962e-07, global = -5.33166e-08, cumulative = -2.10723e-05
smoothSolver:  Solving for nuTilda, Initial residual = 0.000400088, Final residual = 3.4857e-05, No Iterations 11
ExecutionTime = 1.73 s  ClockTime = 1 s

forceCoeffs forceCoeffs write:
    Coefficient	Total	Pressure	Viscous	Internal
    Cd:	19.4834	0.850294	18.6331	0
    Cd(f):	8.52637	-0.795051	9.32142	0
    Cd(r):	10.957	1.64535	9.31169	0
    Cl:	2.43066	2.4404	-0.00973243	0
    Cl(f):	3.19288	3.20217	-0.00928847	0
    Cl(r):	-0.762217	-0.761773	-0.00044396	0
    CmPitch:	1.97755	1.98197	-0.00442225	0
    CmRoll:	-1.21533	-1.2202	0.00486621	0
    CmYaw:	9.7417	0.425147	9.31655	0
    Cs:	4.39638e-19	2.6315e-20	4.13323e-19	0
    Cs(f):	9.7417	0.425147	9.31655	0
    Cs(r):	-9.7417	-0.425147	-9.31655	0

    writing force and moment coefficient files.

forces forces write:
    Sum of forces
        Total    : (11.9336 1.48878 -2.69278e-19)
        Pressure : (0.520805 1.49474 -1.61179e-20)
        Viscous  : (11.4128 -0.00596111 -2.5316e-19)
    Sum of moments
        Total    : (-0.744391 5.96679 -1.21125)
        Pressure : (-0.747371 0.260402 -1.21396)
        Viscous  : (0.00298056 5.70639 0.00270863)
    writing force and moment files.

Time = 43

smoothSolver:  Solving for Ux, Initial residual = 0.000347122, Final residual = 3.30915e-05, No Iterations 4
smoothSolver:  Solving for Uy, Initial residual = 0.00909339, Final residual = 0.000735799, No Iterations 5
GAMG:  Solving for p, Initial residual = 0.00164965, Final residual = 1.60145e-05, No Iterations 16
GAMG:  Solving for p, Initial residual = 6.98387e-05, Final residual = 6.84187e-07, No Iterations 30
time step continuity errors : sum local = 1.4889e-07, global = 6.8873e-08, cumulative = -2.10034e-05
smoothSolver:  Solving for nuTilda, Initial residual = 0.0003804, Final residual = 3.28339e-05, No Iterations 11
ExecutionTime = 1.76 s  ClockTime = 1 s

forceCoeffs forceCoeffs write:
    Coefficient	Total	Pressure	Viscous	Internal
    Cd:	19.1856	0.810292	18.3753	0
    Cd(f):	8.42516	-0.76764	9.1928	0
    Cd(r):	10.7605	1.57793	9.18255	0
    Cl:	2.33533	2.34557	-0.0102449	0
    Cl(f):	3.09125	3.10098	-0.00972595	0
    Cl(r):	-0.755926	-0.755407	-0.000518932	0
    CmPitch:	1.92359	1.92819	-0.00460351	0
    CmRoll:	-1.16766	-1.17279	0.00512244	0
    CmYaw:	9.59282	0.405146	9.18767	0
    Cs:	4.39502e-19	2.64489e-20	4.13054e-19	0
    Cs(f):	9.59282	0.405146	9.18767	0
    Cs(r):	-9.59282	-0.405146	-9.18767	0

    writing force and moment coefficient files.

forces forces write:
    Sum of forces
        Total    : (11.7512 1.43039 -2.69195e-19)
        Pressure : (0.496304 1.43666 -1.61999e-20)
        Viscous  : (11.2549 -0.00627499 -2.52995e-19)
    Sum of moments
        Total    : (-0.715194 5.8756 -1.1782)
        Pressure : (-0.718331 0.248152 -1.18102)
        Viscous  : (0.0031375 5.62745 0.00281965)
    writing force and moment files.

Time = 44

smoothSolver:  Solving for Ux, Initial residual = 0.000341191, Final residual = 3.22054e-05, No Iterations 4
smoothSolver:  Solving for Uy, Initial residual = 0.00890855, Final residual = 0.00072244, No Iterations 5
GAMG:  Solving for p, Initial residual = 0.00162562, Final residual = 1.3832e-05, No Iterations 18
GAMG:  Solving for p, Initial residual = 6.66525e-05, Final residual = 6.33691e-07, No Iterations 32
time step continuity errors : sum local = 1.38235e-07, global = 5.64114e-08, cumulative = -2.0947e-05
smoothSolver:  Solving for nuTilda, Initial residual = 0.000361405, Final residual = 3.09244e-05, No Iterations 11
ExecutionTime = 1.8 s  ClockTime = 1 s

forceCoeffs forceCoeffs write:
    Coefficient	Total	Pressure	Viscous	Internal
    Cd:	18.9292	0.78892	18.1403	0
    Cd(f):	8.33935	-0.736157	9.07551	0
    Cd(r):	10.5899	1.52508	9.06479	0
    Cl:	2.25052	2.26124	-0.0107195	0
    Cl(f):	2.98163	2.99172	-0.0100932	0
    Cl(r):	-0.731114	-0.730488	-0.000626323	0
    CmPitch:	1.85637	1.86111	-0.00473345	0
    CmRoll:	-1.12526	-1.13062	0.00535977	0
    CmYaw:	9.46461	0.39446	9.07015	0
    Cs:	4.39348e-19	2.65984e-20	4.12749e-19	0
    Cs(f):	9.46461	0.39446	9.07015	0
    Cs(r):	-9.46461	-0.39446	-9.07015	0

    writing force and moment coefficient files.

forces forces write:
    Sum of forces
        Total    : (11.5941 1.37844 -2.691e-19)
        Pressure : (0.483214 1.38501 -1.62915e-20)
        Viscous  : (11.1109 -0.00656572 -2.52809e-19)
    Sum of moments
        Total    : (-0.68922 5.79707 -1.13703)
        Pressure : (-0.692503 0.241607 -1.13993)
        Viscous  : (0.00328286 5.55547 0.00289924)
    writing force and moment files.

Time = 45

smoothSolver:  Solving for Ux, Initial residual = 0.000336286, Final residual = 3.13659e-05, No Iterations 4
smoothSolver:  Solving for Uy, Initial residual = 0.00871329, Final residual = 0.000708503, No Iterations 5
GAMG:  Solving for p, Initial residual = 0.00157929, Final residual = 1.39493e-05, No Iterations 20
GAMG:  Solving for p, Initial residual = 6.57671e-05, Final residual = 6.20993e-07, No Iterations 32
time step continuity errors : sum local = 1.36021e-07, global = 5.50886e-08, cumulative = -2.08919e-05
smoothSolver:  Solving for nuTilda, Initial residual = 0.000343355, Final residual = 2.91427e-05, No Iterations 11
ExecutionTime = 1.83 s  ClockTime = 1 s

forceCoeffs forceCoeffs write:
    Coefficient	Total	Pressure	Viscous	Internal
    Cd:	18.7113	0.784417	17.9269	0
    Cd(f):	8.26318	-0.705864	8.96904	0
    Cd(r):	10.4482	1.49028	8.95789	0
    Cl:	2.18499	2.19614	-0.0111558	0
    Cl(f):	2.86738	2.87776	-0.0103791	0
    Cl(r):	-0.682391	-0.681615	-0.000776642	0
    CmPitch:	1.77489	1.77969	-0.00480125	0
    CmRoll:	-1.09249	-1.09807	0.00557789	0
    CmYaw:	9.35567	0.392208	8.96346	0
    Cs:	4.39189e-19	2.67266e-20	4.12462e-19	0
    Cs(f):	9.35567	0.392208	8.96346	0
    Cs(r):	-9.35567	-0.392208	-8.96346	0

    writing force and moment coefficient files.

forces forces write:
    Sum of forces
        Total    : (11.4607 1.33831 -2.69003e-19)
        Pressure : (0.480455 1.34514 -1.63701e-20)
        Viscous  : (10.9802 -0.00683292 -2.52633e-19)
    Sum of moments
        Total    : (-0.669153 5.73035 -1.08712)
        Pressure : (-0.672569 0.240228 -1.09006)
        Viscous  : (0.00341646 5.49012 0.00294077)
    writing force and moment files.

Time = 46

smoothSolver:  Solving for Ux, Initial residual = 0.00033208, Final residual = 3.05705e-05, No Iterations 4
smoothSolver:  Solving for Uy, Initial residual = 0.0085083, Final residual = 0.000693929, No Iterations 5
GAMG:  Solving for p, Initial residual = 0.00152254, Final residual = 1.36805e-05, No Iterations 22
GAMG:  Solving for p, Initial residual = 6.54625e-05, Final residual = 6.12809e-07, No Iterations 30
time step continuity errors : sum local = 1.34979e-07, global = 5.91005e-08, cumulative = -2.08328e-05
smoothSolver:  Solving for nuTilda, Initial residual = 0.000326492, Final residual = 2.75086e-05, No Iterations 11
ExecutionTime = 1.88 s  ClockTime = 1 s

forceCoeffs forceCoeffs write:
    Coefficient	Total	Pressure	Viscous	Internal
    Cd:	18.5291	0.794973	17.7341	0
    Cd(f):	8.19966	-0.673173	8.87283	0
    Cd(r):	10.3294	1.46815	8.86127	0
    Cl:	2.12976	2.14132	-0.011556	0
    Cl(f):	2.75124	2.76181	-0.0105786	0
    Cl(r):	-0.621473	-0.620496	-0.000977359	0
    CmPitch:	1.68635	1.69116	-0.00480062	0
    CmRoll:	-1.06488	-1.07066	0.00577798	0
    CmYaw:	9.26454	0.397487	8.86705	0
    Cs:	4.39013e-19	2.6832e-20	4.12181e-19	0
    Cs(f):	9.26454	0.397487	8.86705	0
    Cs(r):	-9.26454	-0.397487	-8.86705	0

[...]
GAMG:  Solving for p, Initial residual = 1.62163e-05, Final residual = 1.34487e-07, No Iterations 29
time step continuity errors : sum local = 3.55016e-08, global = 1.40418e-08, cumulative = -2.17282e-05
smoothSolver:  Solving for nuTilda, Initial residual = 0.000176494, Final residual = 1.53864e-05, No Iterations 10
ExecutionTime = 3.51 s  ClockTime = 3 s

forceCoeffs forceCoeffs write:
    Coefficient	Total	Pressure	Viscous	Internal
    Cd:	18.1329	2.05551	16.0774	0
    Cd(f):	7.11818	-0.925906	8.04409	0
    Cd(r):	11.0148	2.98141	8.03334	0
    Cl:	3.89658	3.90732	-0.0107446	0
    Cl(f):	0.259233	0.266012	-0.00677902	0
    Cl(r):	3.63734	3.64131	-0.00396562	0
    CmPitch:	-1.68905	-1.68765	-0.0014067	0
    CmRoll:	-1.94829	-1.95366	0.00537232	0
    CmYaw:	9.06647	1.02775	8.03871	0
    Cs:	4.44747e-19	3.46469e-20	4.101e-19	0
    Cs(f):	9.06647	1.02775	8.03871	0
    Cs(r):	-9.06647	-1.02775	-8.03871	0

    writing force and moment coefficient files.

forces forces write:
    Sum of forces
        Total    : (11.1064 2.38665 -2.72408e-19)
        Pressure : (1.259 2.39323 -2.12212e-20)
        Viscous  : (9.84743 -0.00658109 -2.51186e-19)
    Sum of moments
        Total    : (-1.19333 5.55321 1.03455)
        Pressure : (-1.19662 0.629499 1.03368)
        Viscous  : (0.00329054 4.92371 0.000861605)
    writing force and moment files.

Time = 90

smoothSolver:  Solving for Ux, Initial residual = 8.02988e-05, Final residual = 5.76163e-06, No Iterations 4
smoothSolver:  Solving for Uy, Initial residual = 0.00176571, Final residual = 0.000167618, No Iterations 4
GAMG:  Solving for p, Initial residual = 0.000321167, Final residual = 2.93338e-06, No Iterations 24
GAMG:  Solving for p, Initial residual = 1.52891e-05, Final residual = 1.27089e-07, No Iterations 29
time step continuity errors : sum local = 3.34625e-08, global = 1.28991e-08, cumulative = -2.17153e-05
smoothSolver:  Solving for nuTilda, Initial residual = 0.000192753, Final residual = 1.7365e-05, No Iterations 9
ExecutionTime = 3.55 s  ClockTime = 3 s

forceCoeffs forceCoeffs write:
    Coefficient	Total	Pressure	Viscous	Internal
    Cd:	18.1036	2.04	16.0636	0
    Cd(f):	7.12155	-0.915541	8.0371	0
    Cd(r):	10.9821	2.95554	8.02653	0
    Cl:	3.86051	3.87108	-0.0105685	0
    Cl(f):	0.265961	0.272752	-0.00679133	0
    Cl(r):	3.59455	3.59833	-0.00377721	0
    CmPitch:	-1.6643	-1.66279	-0.00150706	0
    CmRoll:	-1.93026	-1.93554	0.00528427	0
    CmYaw:	9.05181	1.02	8.03181	0
    Cs:	4.4471e-19	3.45958e-20	4.10114e-19	0
    Cs(f):	9.05181	1.02	8.03181	0
    Cs(r):	-9.05181	-1.02	-8.03181	0

    writing force and moment coefficient files.

forces forces write:
    Sum of forces
        Total    : (11.0885 2.36457 -2.72385e-19)
        Pressure : (1.2495 2.37104 -2.11899e-20)
        Viscous  : (9.83897 -0.00647323 -2.51195e-19)
    Sum of moments
        Total    : (-1.18228 5.54423 1.01938)
        Pressure : (-1.18552 0.624751 1.01846)
        Viscous  : (0.00323662 4.91948 0.000923073)
    writing force and moment files.

Time = 91

smoothSolver:  Solving for Ux, Initial residual = 7.5788e-05, Final residual = 5.49473e-06, No Iterations 4
smoothSolver:  Solving for Uy, Initial residual = 0.0016634, Final residual = 0.000159534, No Iterations 4
GAMG:  Solving for p, Initial residual = 0.00030394, Final residual = 2.92276e-06, No Iterations 24
GAMG:  Solving for p, Initial residual = 1.45099e-05, Final residual = 1.19615e-07, No Iterations 29
time step continuity errors : sum local = 3.14175e-08, global = 1.21501e-08, cumulative = -2.17032e-05
smoothSolver:  Solving for nuTilda, Initial residual = 0.000170812, Final residual = 1.48678e-05, No Iterations 10
ExecutionTime = 3.59 s  ClockTime = 3 s

forceCoeffs forceCoeffs write:
    Coefficient	Total	Pressure	Viscous	Internal
    Cd:	18.0726	2.02475	16.0479	0
    Cd(f):	7.12577	-0.903359	8.02913	0
    Cd(r):	10.9469	2.92811	8.01875	0
    Cl:	3.82109	3.83147	-0.0103769	0
    Cl(f):	0.273932	0.280723	-0.00679104	0
    Cl(r):	3.54716	3.55075	-0.00358586	0
    CmPitch:	-1.63661	-1.63501	-0.00160259	0
    CmRoll:	-1.91055	-1.91573	0.00518845	0
    CmYaw:	9.03631	1.01238	8.02394	0
    Cs:	4.44677e-19	3.45376e-20	4.1014e-19	0
    Cs(f):	9.03631	1.01238	8.02394	0
    Cs(r):	-9.03631	-1.01238	-8.02394	0

    writing force and moment coefficient files.

forces forces write:
    Sum of forces
        Total    : (11.0695 2.34042 -2.72365e-19)
        Pressure : (1.24016 2.34678 -2.11543e-20)
        Viscous  : (9.82932 -0.00635585 -2.5121e-19)
    Sum of moments
        Total    : (-1.17021 5.53474 1.00243)
        Pressure : (-1.17339 0.62008 1.00144)
        Viscous  : (0.00317793 4.91466 0.000981587)
    writing force and moment files.

Time = 92

smoothSolver:  Solving for Ux, Initial residual = 7.2109e-05, Final residual = 5.27688e-06, No Iterations 4
smoothSolver:  Solving for Uy, Initial residual = 0.00156754, Final residual = 0.000151992, No Iterations 4
GAMG:  Solving for p, Initial residual = 0.000278674, Final residual = 2.25367e-06, No Iterations 26
GAMG:  Solving for p, Initial residual = 1.34216e-05, Final residual = 1.22707e-07, No Iterations 29
time step continuity errors : sum local = 3.21521e-08, global = 1.11661e-08, cumulative = -2.1692e-05
smoothSolver:  Solving for nuTilda, Initial residual = 0.000186808, Final residual = 1.68173e-05, No Iterations 9
ExecutionTime = 3.63 s  ClockTime = 3 s

forceCoeffs forceCoeffs write:
    Coefficient	Total	Pressure	Viscous	Internal
    Cd:	18.0443	2.01076	16.0335	0
    Cd(f):	7.13232	-0.889547	8.02187	0
    Cd(r):	10.912	2.90031	8.01167	0
    Cl:	3.77965	3.78985	-0.010204	0
    Cl(f):	0.282689	0.289493	-0.00680354	0
    Cl(r):	3.49696	3.50036	-0.0034005	0
    CmPitch:	-1.60714	-1.60543	-0.00170152	0
    CmRoll:	-1.88983	-1.89493	0.00510202	0
    CmYaw:	9.02215	1.00538	8.01677	0
    Cs:	4.44621e-19	3.44832e-20	4.10138e-19	0
    Cs(f):	9.02215	1.00538	8.01677	0
    Cs(r):	-9.02215	-1.00538	-8.01677	0

    writing force and moment coefficient files.

forces forces write:
    Sum of forces
        Total    : (11.0521 2.31504 -2.72331e-19)
        Pressure : (1.23159 2.32129 -2.11209e-20)
        Viscous  : (9.82054 -0.00624997 -2.5121e-19)
    Sum of moments
        Total    : (-1.15752 5.52607 0.984371)
        Pressure : (-1.16064 0.615796 0.983329)
        Viscous  : (0.00312499 4.91027 0.00104218)
    writing force and moment files.

Time = 93

smoothSolver:  Solving for Ux, Initial residual = 6.80567e-05, Final residual = 5.04033e-06, No Iterations 4
smoothSolver:  Solving for Uy, Initial residual = 0.00147708, Final residual = 0.000144978, No Iterations 4
GAMG:  Solving for p, Initial residual = 0.000253752, Final residual = 2.11349e-06, No Iterations 26
GAMG:  Solving for p, Initial residual = 1.26497e-05, Final residual = 1.19045e-07, No Iterations 29
time step continuity errors : sum local = 3.11214e-08, global = 1.06062e-08, cumulative = -2.16814e-05
smoothSolver:  Solving for nuTilda, Initial residual = 0.000165674, Final residual = 1.43859e-05, No Iterations 10
ExecutionTime = 3.68 s  ClockTime = 3 s

forceCoeffs forceCoeffs write:
    Coefficient	Total	Pressure	Viscous	Internal
    Cd:	18.0143	1.99705	16.0173	0
    Cd(f):	7.13936	-0.874287	8.01365	0
    Cd(r):	10.875	2.87133	8.00364	0
    Cl:	3.73561	3.74562	-0.0100144	0
    Cl(f):	0.292456	0.299258	-0.00680123	0
    Cl(r):	3.44315	3.44636	-0.00321321	0
    CmPitch:	-1.57535	-1.57355	-0.00179401	0
    CmRoll:	-1.8678	-1.87281	0.00500722	0
    CmYaw:	9.00717	0.998524	8.00864	0
    Cs:	4.44572e-19	3.44235e-20	4.10149e-19	0
    Cs(f):	9.00717	0.998524	8.00864	0
    Cs(r):	-9.00717	-0.998524	-8.00864	0

    writing force and moment coefficient files.

forces forces write:
    Sum of forces
        Total    : (11.0338 2.28806 -2.723e-19)
        Pressure : (1.22319 2.29419 -2.10844e-20)
        Viscous  : (9.81059 -0.00613384 -2.51216e-19)
    Sum of moments
        Total    : (-1.14403 5.51689 0.9649)
        Pressure : (-1.1471 0.611596 0.963801)
        Viscous  : (0.00306692 4.90529 0.00109883)
    writing force and moment files.

Time = 94

smoothSolver:  Solving for Ux, Initial residual = 6.48247e-05, Final residual = 4.85028e-06, No Iterations 4
smoothSolver:  Solving for Uy, Initial residual = 0.00139123, Final residual = 0.000138352, No Iterations 4
GAMG:  Solving for p, Initial residual = 0.000234277, Final residual = 1.9625e-06, No Iterations 26
GAMG:  Solving for p, Initial residual = 1.19331e-05, Final residual = 1.17044e-07, No Iterations 29
time step continuity errors : sum local = 3.05313e-08, global = 1.02669e-08, cumulative = -2.16711e-05
smoothSolver:  Solving for nuTilda, Initial residual = 0.000181095, Final residual = 1.63011e-05, No Iterations 9
ExecutionTime = 3.72 s  ClockTime = 3 s

forceCoeffs forceCoeffs write:
    Coefficient	Total	Pressure	Viscous	Internal
    Cd:	17.987	1.98457	16.0025	0
    Cd(f):	7.1485	-0.857655	8.00616	0
    Cd(r):	10.8385	2.84222	7.99631	0
    Cl:	3.69003	3.69988	-0.00984573	0
    Cl(f):	0.30278	0.309593	-0.00681261	0
    Cl(r):	3.38725	3.39028	-0.00303313	0
    CmPitch:	-1.54224	-1.54035	-0.00188974	0
    CmRoll:	-1.84502	-1.84994	0.00492287	0
    CmYaw:	8.99352	0.992283	8.00123	0
    Cs:	4.44502e-19	3.43698e-20	4.10132e-19	0
    Cs(f):	8.99352	0.992283	8.00123	0
    Cs(r):	-8.99352	-0.992283	-8.00123	0

    writing force and moment coefficient files.

forces forces write:
    Sum of forces
        Total    : (11.0171 2.26014 -2.72258e-19)
        Pressure : (1.21555 2.26617 -2.10515e-20)
        Viscous  : (9.80151 -0.00603051 -2.51206e-19)
    Sum of moments
        Total    : (-1.13007 5.50853 0.944619)
        Pressure : (-1.13309 0.607774 0.943462)
        Viscous  : (0.00301526 4.90075 0.00115747)
    writing force and moment files.

Time = 95

smoothSolver:  Solving for Ux, Initial residual = 6.11848e-05, Final residual = 4.64116e-06, No Iterations 4
smoothSolver:  Solving for Uy, Initial residual = 0.00131038, Final residual = 8.869e-05, No Iterations 5
GAMG:  Solving for p, Initial residual = 0.000240916, Final residual = 1.97861e-06, No Iterations 28
GAMG:  Solving for p, Initial residual = 1.27611e-05, Final residual = 1.24396e-07, No Iterations 29
time step continuity errors : sum local = 3.23551e-08, global = 1.03843e-08, cumulative = -2.16608e-05
smoothSolver:  Solving for nuTilda, Initial residual = 0.000160576, Final residual = 1.39395e-05, No Iterations 10
ExecutionTime = 3.76 s  ClockTime = 3 s

forceCoeffs forceCoeffs write:
    Coefficient	Total	Pressure	Viscous	Internal
    Cd:	17.9534	1.96768	15.9858	0
    Cd(f):	7.13704	-0.860658	7.9977	0
    Cd(r):	10.8164	2.82834	7.98805	0
    Cl:	3.67935	3.68899	-0.00964414	0
    Cl(f):	0.307776	0.314582	-0.00680618	0
    Cl(r):	3.37157	3.37441	-0.00283797	0
    CmPitch:	-1.5319	-1.52992	-0.0019841	0
    CmRoll:	-1.83968	-1.8445	0.00482207	0
    CmYaw:	8.97672	0.983839	7.99288	0
    Cs:	4.44478e-19	3.43399e-20	4.10138e-19	0
    Cs(f):	8.97672	0.983839	7.99288	0
    Cs(r):	-8.97672	-0.983839	-7.99288	0

    writing force and moment coefficient files.

forces forces write:
    Sum of forces
        Total    : (10.9965 2.2536 -2.72243e-19)
        Pressure : (1.2052 2.25951 -2.10332e-20)
        Viscous  : (9.79127 -0.00590704 -2.5121e-19)
    Sum of moments
        Total    : (-1.1268 5.49824 0.938288)
        Pressure : (-1.12975 0.602601 0.937073)
        Viscous  : (0.00295352 4.89564 0.00121526)
    writing force and moment files.

Time = 96

smoothSolver:  Solving for Ux, Initial residual = 5.82542e-05, Final residual = 4.4756e-06, No Iterations 4
smoothSolver:  Solving for Uy, Initial residual = 0.00121967, Final residual = 8.35738e-05, No Iterations 5
GAMG:  Solving for p, Initial residual = 0.000223312, Final residual = 2.07373e-06, No Iterations 24
GAMG:  Solving for p, Initial residual = 1.08285e-05, Final residual = 1.02712e-07, No Iterations 29
time step continuity errors : sum local = 2.66605e-08, global = 9.40437e-09, cumulative = -2.16514e-05
smoothSolver:  Solving for nuTilda, Initial residual = 0.000175582, Final residual = 1.5815e-05, No Iterations 9
ExecutionTime = 3.8 s  ClockTime = 3 s

forceCoeffs forceCoeffs write:
    Coefficient	Total	Pressure	Viscous	Internal
    Cd:	17.9267	1.9562	15.9705	0
    Cd(f):	7.14713	-0.842858	7.98999	0
    Cd(r):	10.7795	2.79906	7.98048	0
    Cl:	3.63241	3.64192	-0.00950574	0
    Cl(f):	0.319821	0.326637	-0.00681591	0
    Cl(r):	3.31259	3.31528	-0.00268984	0
    CmPitch:	-1.49638	-1.49432	-0.00206304	0
    CmRoll:	-1.81621	-1.82096	0.00475287	0
    CmYaw:	8.96334	0.9781	7.98524	0
    Cs:	4.44394e-19	3.42881e-20	4.10106e-19	0
    Cs(f):	8.96334	0.9781	7.98524	0
    Cs(r):	-8.96334	-0.9781	-7.98524	0

    writing force and moment coefficient files.

forces forces write:
    Sum of forces
        Total    : (10.9801 2.22485 -2.72191e-19)
        Pressure : (1.19817 2.23067 -2.10015e-20)
        Viscous  : (9.78191 -0.00582227 -2.5119e-19)
    Sum of moments
        Total    : (-1.11243 5.49004 0.916536)
        Pressure : (-1.11534 0.599086 0.915272)
        Viscous  : (0.00291113 4.89096 0.00126361)
    writing force and moment files.

Time = 97

smoothSolver:  Solving for Ux, Initial residual = 5.50216e-05, Final residual = 4.29093e-06, No Iterations 4
smoothSolver:  Solving for Uy, Initial residual = 0.00114737, Final residual = 7.96912e-05, No Iterations 5
GAMG:  Solving for p, Initial residual = 0.00021778, Final residual = 1.83592e-06, No Iterations 24
GAMG:  Solving for p, Initial residual = 1.01503e-05, Final residual = 8.58158e-08, No Iterations 31
time step continuity errors : sum local = 2.22325e-08, global = 7.79611e-09, cumulative = -2.16436e-05
smoothSolver:  Solving for nuTilda, Initial residual = 0.000155634, Final residual = 1.35244e-05, No Iterations 10
ExecutionTime = 3.85 s  ClockTime = 3 s

forceCoeffs forceCoeffs write:
    Coefficient	Total	Pressure	Viscous	Internal
    Cd:	17.8991	1.94571	15.9534	0
    Cd(f):	7.16012	-0.82123	7.98135	0
    Cd(r):	10.739	2.76694	7.97204	0
    Cl:	3.57887	3.58817	-0.00930434	0
    Cl(f):	0.333416	0.340222	-0.00680595	0
    Cl(r):	3.24545	3.24795	-0.00249839	0
    CmPitch:	-1.45602	-1.45386	-0.00215378	0
    CmRoll:	-1.78943	-1.79409	0.00465217	0
    CmYaw:	8.94955	0.972855	7.9767	0
    Cs:	4.44318e-19	3.42291e-20	4.10089e-19	0
    Cs(f):	8.94955	0.972855	7.9767	0
    Cs(r):	-8.94955	-0.972855	-7.9767	0

    writing force and moment coefficient files.

forces forces write:
    Sum of forces
        Total    : (10.9632 2.19206 -2.72145e-19)
        Pressure : (1.19175 2.19775 -2.09654e-20)
        Viscous  : (9.77145 -0.00569891 -2.5118e-19)
    Sum of moments
        Total    : (-1.09603 5.4816 0.891811)
        Pressure : (-1.09888 0.595874 0.890491)
        Viscous  : (0.00284946 4.88573 0.00131919)
    writing force and moment files.

Time = 98

smoothSolver:  Solving for Ux, Initial residual = 5.25001e-05, Final residual = 4.14377e-06, No Iterations 4
smoothSolver:  Solving for Uy, Initial residual = 0.00108004, Final residual = 7.61056e-05, No Iterations 5
GAMG:  Solving for p, Initial residual = 0.000212134, Final residual = 2.01988e-06, No Iterations 22
GAMG:  Solving for p, Initial residual = 9.7428e-06, Final residual = 9.32875e-08, No Iterations 29
time step continuity errors : sum local = 2.41259e-08, global = 8.84187e-09, cumulative = -2.16347e-05
smoothSolver:  Solving for nuTilda, Initial residual = 0.000170347, Final residual = 1.53596e-05, No Iterations 9
ExecutionTime = 3.88 s  ClockTime = 3 s

forceCoeffs forceCoeffs write:
    Coefficient	Total	Pressure	Viscous	Internal
    Cd:	17.8742	1.93646	15.9377	0
    Cd(f):	7.17446	-0.798978	7.97344	0
    Cd(r):	10.6997	2.73544	7.96428	0
    Cl:	3.52525	3.53442	-0.00916621	0
    Cl(f):	0.346924	0.353735	-0.00681084	0
    Cl(r):	3.17833	3.18068	-0.00235537	0
    CmPitch:	-1.4157	-1.41347	-0.00222773	0
    CmRoll:	-1.76263	-1.76721	0.00458311	0
    CmYaw:	8.93709	0.968232	7.96886	0
    Cs:	4.44225e-19	3.41798e-20	4.10045e-19	0
    Cs(f):	8.93709	0.968232	7.96886	0
    Cs(r):	-8.93709	-0.968232	-7.96886	0

    writing force and moment coefficient files.

forces forces write:
    Sum of forces
        Total    : (10.9479 2.15922 -2.72088e-19)
        Pressure : (1.18608 2.16483 -2.09351e-20)
        Viscous  : (9.76185 -0.0056143 -2.51153e-19)
    Sum of moments
        Total    : (-1.07961 5.47397 0.867118)
        Pressure : (-1.08242 0.593042 0.865753)
        Viscous  : (0.00280715 4.88093 0.00136449)
    writing force and moment files.

Time = 99

smoothSolver:  Solving for Ux, Initial residual = 4.96074e-05, Final residual = 3.97563e-06, No Iterations 4
smoothSolver:  Solving for Uy, Initial residual = 0.00101674, Final residual = 7.27428e-05, No Iterations 5
GAMG:  Solving for p, Initial residual = 0.000206314, Final residual = 1.99431e-06, No Iterations 21
GAMG:  Solving for p, Initial residual = 9.29371e-06, Final residual = 8.76884e-08, No Iterations 29
time step continuity errors : sum local = 2.26403e-08, global = 8.55669e-09, cumulative = -2.16262e-05
smoothSolver:  Solving for nuTilda, Initial residual = 0.000151007, Final residual = 1.31401e-05, No Iterations 10
ExecutionTime = 3.92 s  ClockTime = 4 s

forceCoeffs forceCoeffs write:
    Coefficient	Total	Pressure	Viscous	Internal
    Cd:	17.8476	1.92734	15.9203	0
    Cd(f):	7.18763	-0.776993	7.96463	0
    Cd(r):	10.66	2.70434	7.95565	0
    Cl:	3.47236	3.48133	-0.00897175	0
    Cl(f):	0.360367	0.367162	-0.0067956	0
    Cl(r):	3.11199	3.11417	-0.00217615	0
    CmPitch:	-1.37581	-1.3735	-0.00230972	0
    CmRoll:	-1.73618	-1.74066	0.00448587	0
    CmYaw:	8.92381	0.963672	7.96014	0
    Cs:	4.44144e-19	3.41294e-20	4.10014e-19	0
    Cs(f):	8.92381	0.963672	7.96014	0
    Cs(r):	-8.92381	-0.963672	-7.96014	0

    writing force and moment coefficient files.

forces forces write:
    Sum of forces
        Total    : (10.9317 2.12682 -2.72038e-19)
        Pressure : (1.1805 2.13231 -2.09042e-20)
        Viscous  : (9.75117 -0.0054952 -2.51134e-19)
    Sum of moments
        Total    : (-1.06341 5.46583 0.842685)
        Pressure : (-1.06616 0.590249 0.84127)
        Viscous  : (0.0027476 4.87559 0.0014147)
    writing force and moment files.

Time = 100

smoothSolver:  Solving for Ux, Initial residual = 4.74178e-05, Final residual = 3.84415e-06, No Iterations 4
smoothSolver:  Solving for Uy, Initial residual = 0.000957224, Final residual = 6.95397e-05, No Iterations 5
GAMG:  Solving for p, Initial residual = 0.000200339, Final residual = 1.6374e-06, No Iterations 23
GAMG:  Solving for p, Initial residual = 8.68596e-06, Final residual = 7.41403e-08, No Iterations 31
time step continuity errors : sum local = 1.91119e-08, global = 6.84881e-09, cumulative = -2.16193e-05
smoothSolver:  Solving for nuTilda, Initial residual = 0.000165494, Final residual = 1.4937e-05, No Iterations 9
ExecutionTime = 3.97 s  ClockTime = 4 s

forceCoeffs forceCoeffs write:
    Coefficient	Total	Pressure	Viscous	Internal
    Cd:	17.8237	1.9194	15.9043	0
    Cd(f):	7.20155	-0.754996	7.95655	0
    Cd(r):	10.6221	2.6744	7.94771	0
    Cl:	3.42056	3.42939	-0.0088369	0
    Cl(f):	0.373457	0.380254	-0.00679642	0
    Cl(r):	3.0471	3.04914	-0.00204048	0
    CmPitch:	-1.33682	-1.33444	-0.00237797	0
    CmRoll:	-1.71028	-1.7147	0.00441845	0
    CmYaw:	8.91183	0.959701	7.95213	0
    Cs:	4.44047e-19	3.40906e-20	4.09957e-19	0
    Cs(f):	8.91183	0.959701	7.95213	0
    Cs(r):	-8.91183	-0.959701	-7.95213	0

    writing force and moment coefficient files.

forces forces write:
    Sum of forces
        Total    : (10.917 2.09509 -2.71979e-19)
        Pressure : (1.17563 2.1005 -2.08805e-20)
        Viscous  : (9.74136 -0.0054126 -2.51099e-19)
    Sum of moments
        Total    : (-1.04755 5.4585 0.818803)
        Pressure : (-1.05025 0.587817 0.817346)
        Viscous  : (0.0027063 4.87068 0.00145651)
    writing force and moment files.

End

Finalising parallel run
